data_image0
_cell_length_a       13.0769
_cell_length_b       26.5673
_cell_length_c       13.1579
_cell_angle_alpha    90
_cell_angle_beta     116.588
_cell_angle_gamma    90

_symmetry_space_group_name_H-M    "P 1"
_symmetry_int_tables_number       1

loop_
  _symmetry_equiv_pos_as_xyz
  'x, y, z'

loop_
  _atom_site_label
  _atom_site_occupancy
  _atom_site_fract_x
  _atom_site_fract_y
  _atom_site_fract_z
  _atom_site_thermal_displace_type
  _atom_site_B_iso_or_equiv
  _atom_site_type_symbol
  _atom_site_charge
  Dy1      1.0000 0.18023  0.99455  0.08021  Biso   1.000  Dy  2.136276
  O1       1.0000 0.11650  0.93360  0.93490  Biso   1.000  O  -0.646811
  O2       1.0000 0.30930  0.94770  0.21980  Biso   1.000  O  -0.685668
  O3       1.0000 0.06670  0.04580  0.12650  Biso   1.000  O  -0.675107
  O4       1.0000 0.10940  0.04750  0.92970  Biso   1.000  O  -0.675663
  O5       1.0000 0.07490  0.93490  0.12630  Biso   1.000  O  -0.646844
  O6       1.0000 0.30700  0.06100  0.16730  Biso   1.000  O  -0.673724
  C1       1.0000 0.01240  0.92460  0.88300  Biso   1.000  C  0.631064
  C2       1.0000 0.37790  0.91950  0.29700  Biso   1.000  C  0.628259
  C3       1.0000 0.98010  0.87270  0.82880  Biso   1.000  C  -0.036335
  C4       1.0000 0.39600  0.86730  0.26360  Biso   1.000  C  -0.037338
  O7       1.0000 0.43150  0.93150  0.39760  Biso   1.000  O  -0.794458
  C5       1.0000 0.87670  0.85140  0.81660  Biso   1.000  C  -0.126834
  C6       1.0000 0.05410  0.84550  0.80130  Biso   1.000  C  -0.151695
  C7       1.0000 0.47850  0.83610  0.34390  Biso   1.000  C  -0.151025
  C8       1.0000 0.33160  0.84940  0.15290  Biso   1.000  C  -0.124364
  Dy2      1.0000 0.54625  0.99302  0.49623  Biso   1.000  Dy  1.954294
  H1       1.0000 0.82710  0.87010  0.83480  Biso   1.000  H  0.107600
  C9       1.0000 0.84940  0.80310  0.77760  Biso   1.000  C  -0.124640
  H2       1.0000 0.12260  0.85980  0.81030  Biso   1.000  H  0.107462
  C10      1.0000 0.02620  0.79710  0.76040  Biso   1.000  C  0.034876
  H3       1.0000 0.52240  0.84780  0.41740  Biso   1.000  H  0.107174
  C11      1.0000 0.49510  0.78830  0.31490  Biso   1.000  C  0.036060
  H4       1.0000 0.27760  0.87040  0.09890  Biso   1.000  H  0.107393
  C12      1.0000 0.34620  0.80190  0.12250  Biso   1.000  C  -0.123779
  O8       1.0000 0.68600  0.92650  0.49900  Biso   1.000  O  -0.581900
  O9       1.0000 0.61000  0.96790  0.34900  Biso   1.000  O  -0.586063
  O10      1.0000 0.42660  0.04450  0.34720  Biso   1.000  O  -0.793983
  H5       1.0000 0.78100  0.78890  0.76890  Biso   1.000  H  0.107607
  C13      1.0000 0.92440  0.77540  0.75110  Biso   1.000  C  0.037909
  C14      1.0000 0.09020  0.76060  0.71930  Biso   1.000  C  0.164221
  C15      1.0000 0.42920  0.77080  0.20410  Biso   1.000  C  0.036926
  C16      1.0000 0.58160  0.74850  0.38800  Biso   1.000  C  0.171066
  H6       1.0000 0.30200  0.79020  0.04900  Biso   1.000  H  0.107393
  N1       1.0000 0.68900  0.93680  0.40600  Biso   1.000  N  0.737778
  C17      1.0000 0.92140  0.72270  0.71660  Biso   1.000  C  0.038660
  C18      1.0000 0.09050  0.78010  0.61000  Biso   1.000  C  -0.530848
  C19      1.0000 0.21220  0.75130  0.81010  Biso   1.000  C  -0.531538
  C20      1.0000 0.01810  0.71320  0.69670  Biso   1.000  C  0.033992
  C21      1.0000 0.46250  0.71920  0.19710  Biso   1.000  C  0.038579
  C22      1.0000 0.70420  0.76680  0.42980  Biso   1.000  C  -0.531483
  C23      1.0000 0.55950  0.73300  0.48820  Biso   1.000  C  -0.531925
  C24      1.0000 0.55330  0.70550  0.30230  Biso   1.000  C  0.034076
  O11      1.0000 0.73700  0.91040  0.37100  Biso   1.000  O  -0.501121
  C25      1.0000 0.84480  0.68390  0.70090  Biso   1.000  C  -0.123300
  H7       1.0000 0.12110  0.75500  0.57940  Biso   1.000  H  0.161707
  H8       1.0000 0.01150  0.78700  0.55740  Biso   1.000  H  0.156166
  H9       1.0000 0.13580  0.80990  0.62350  Biso   1.000  H  0.166264
  H10      1.0000 0.24640  0.72530  0.78540  Biso   1.000  H  0.157797
  H11      1.0000 0.25640  0.78140  0.82150  Biso   1.000  H  0.157823
  H12      1.0000 0.21210  0.74170  0.87960  Biso   1.000  H  0.154778
  C26      1.0000 0.03720  0.66610  0.66510  Biso   1.000  C  -0.151385
  C27      1.0000 0.42220  0.68470  0.10640  Biso   1.000  C  -0.125338
  H13      1.0000 0.71570  0.77800  0.36700  Biso   1.000  H  0.159085
  H14      1.0000 0.71890  0.79370  0.48190  Biso   1.000  H  0.155599
  H15      1.0000 0.75660  0.73980  0.46680  Biso   1.000  H  0.158533
  H16      1.0000 0.60660  0.70470  0.52510  Biso   1.000  H  0.157747
  H17      1.0000 0.57950  0.76030  0.54020  Biso   1.000  H  0.154778
  H18      1.0000 0.47920  0.72480  0.46210  Biso   1.000  H  0.156146
  C28      1.0000 0.60210  0.65840  0.31720  Biso   1.000  C  -0.151054
  H19      1.0000 0.78220  0.68950  0.71520  Biso   1.000  H  0.107276
  C29      1.0000 0.86050  0.63750  0.66440  Biso   1.000  C  -0.126834
  H20      1.0000 0.10200  0.65980  0.65510  Biso   1.000  H  0.107583
  C30      1.0000 0.95820  0.62840  0.64860  Biso   1.000  C  -0.037330
  H21      1.0000 0.36450  0.69390  0.03580  Biso   1.000  H  0.107174
  C31      1.0000 0.46790  0.63810  0.12280  Biso   1.000  C  -0.124630
  H22      1.0000 0.66190  0.64950  0.38670  Biso   1.000  H  0.107620
  C32      1.0000 0.56140  0.62440  0.22750  Biso   1.000  C  -0.036227
  H23      1.0000 0.80670  0.61220  0.65030  Biso   1.000  H  0.107536
  C33      1.0000 0.97680  0.57620  0.61450  Biso   1.000  C  0.628949
  H24      1.0000 0.43770  0.61460  0.06440  Biso   1.000  H  0.107174
  C34      1.0000 0.61520  0.57340  0.24200  Biso   1.000  C  0.610844
  Dy3      1.0000 0.81977  0.49455  0.41979  Biso   1.000  Dy  2.136276
  O12      1.0000 0.88350  0.43360  0.56510  Biso   1.000  O  -0.646811
  O13      1.0000 0.69070  0.44770  0.28020  Biso   1.000  O  -0.685668
  O14      1.0000 0.93330  0.54580  0.37350  Biso   1.000  O  -0.675107
  O15      1.0000 0.89060  0.54750  0.57030  Biso   1.000  O  -0.675663
  O16      1.0000 0.92510  0.43490  0.37370  Biso   1.000  O  -0.646844
  O17      1.0000 0.69300  0.56100  0.33270  Biso   1.000  O  -0.673724
  C35      1.0000 0.98760  0.42460  0.61700  Biso   1.000  C  0.631064
  C36      1.0000 0.62210  0.41950  0.20300  Biso   1.000  C  0.628259
  C37      1.0000 0.01990  0.37270  0.67120  Biso   1.000  C  -0.036335
  C38      1.0000 0.60400  0.36730  0.23640  Biso   1.000  C  -0.037338
  O18      1.0000 0.56850  0.43150  0.10240  Biso   1.000  O  -0.794458
  C39      1.0000 0.12330  0.35140  0.68340  Biso   1.000  C  -0.126834
  C40      1.0000 0.94590  0.34550  0.69870  Biso   1.000  C  -0.151695
  C41      1.0000 0.52150  0.33610  0.15610  Biso   1.000  C  -0.151025
  C42      1.0000 0.66840  0.34940  0.34710  Biso   1.000  C  -0.124364
  Dy4      1.0000 0.45375  0.49302  0.00377  Biso   1.000  Dy  1.954294
  H25      1.0000 0.17290  0.37010  0.66520  Biso   1.000  H  0.107600
  C43      1.0000 0.15060  0.30310  0.72240  Biso   1.000  C  -0.124640
  H26      1.0000 0.87740  0.35980  0.68970  Biso   1.000  H  0.107462
  C44      1.0000 0.97380  0.29710  0.73960  Biso   1.000  C  0.034876
  H27      1.0000 0.47760  0.34780  0.08260  Biso   1.000  H  0.107174
  C45      1.0000 0.50490  0.28830  0.18510  Biso   1.000  C  0.036060
  H28      1.0000 0.72240  0.37040  0.40110  Biso   1.000  H  0.107393
  C46      1.0000 0.65380  0.30190  0.37750  Biso   1.000  C  -0.123779
  O19      1.0000 0.31400  0.42650  0.00100  Biso   1.000  O  -0.581900
  O20      1.0000 0.39000  0.46790  0.15100  Biso   1.000  O  -0.586063
  O21      1.0000 0.57340  0.54450  0.15280  Biso   1.000  O  -0.793983
  H29      1.0000 0.21900  0.28890  0.73110  Biso   1.000  H  0.107607
  C47      1.0000 0.07560  0.27540  0.74890  Biso   1.000  C  0.037909
  C48      1.0000 0.90980  0.26060  0.78070  Biso   1.000  C  0.164221
  C49      1.0000 0.57080  0.27080  0.29590  Biso   1.000  C  0.036926
  C50      1.0000 0.41840  0.24850  0.11200  Biso   1.000  C  0.171066
  H30      1.0000 0.69800  0.29020  0.45100  Biso   1.000  H  0.107393
  N2       1.0000 0.31100  0.43680  0.09400  Biso   1.000  N  0.737778
  C51      1.0000 0.07860  0.22270  0.78340  Biso   1.000  C  0.038660
  C52      1.0000 0.90950  0.28010  0.89000  Biso   1.000  C  -0.530848
  C53      1.0000 0.78780  0.25130  0.68990  Biso   1.000  C  -0.531538
  C54      1.0000 0.98190  0.21320  0.80330  Biso   1.000  C  0.033992
  C55      1.0000 0.53750  0.21920  0.30290  Biso   1.000  C  0.038579
  C56      1.0000 0.29580  0.26680  0.07020  Biso   1.000  C  -0.531483
  C57      1.0000 0.44050  0.23300  0.01180  Biso   1.000  C  -0.531925
  C58      1.0000 0.44670  0.20550  0.19770  Biso   1.000  C  0.034076
  O22      1.0000 0.26300  0.41040  0.12900  Biso   1.000  O  -0.501121
  C59      1.0000 0.15520  0.18390  0.79910  Biso   1.000  C  -0.123300
  H31      1.0000 0.87890  0.25500  0.92060  Biso   1.000  H  0.161707
  H32      1.0000 0.98850  0.28700  0.94260  Biso   1.000  H  0.156166
  H33      1.0000 0.86420  0.30990  0.87650  Biso   1.000  H  0.166264
  H34      1.0000 0.75360  0.22530  0.71460  Biso   1.000  H  0.157797
  H35      1.0000 0.74360  0.28140  0.67850  Biso   1.000  H  0.157823
  H36      1.0000 0.78790  0.24170  0.62040  Biso   1.000  H  0.154778
  C60      1.0000 0.96280  0.16610  0.83490  Biso   1.000  C  -0.151385
  C61      1.0000 0.57780  0.18470  0.39360  Biso   1.000  C  -0.125338
  H37      1.0000 0.28430  0.27800  0.13300  Biso   1.000  H  0.159085
  H38      1.0000 0.28110  0.29370  0.01810  Biso   1.000  H  0.155599
  H39      1.0000 0.24340  0.23980  0.03320  Biso   1.000  H  0.158533
  H40      1.0000 0.39340  0.20470  0.97490  Biso   1.000  H  0.157747
  H41      1.0000 0.42050  0.26030  0.95980  Biso   1.000  H  0.154778
  H42      1.0000 0.52080  0.22480  0.03790  Biso   1.000  H  0.156146
  C62      1.0000 0.39790  0.15840  0.18280  Biso   1.000  C  -0.151054
  H43      1.0000 0.21780  0.18950  0.78480  Biso   1.000  H  0.107276
  C63      1.0000 0.13950  0.13750  0.83560  Biso   1.000  C  -0.126834
  H44      1.0000 0.89800  0.15980  0.84490  Biso   1.000  H  0.107583
  C64      1.0000 0.04180  0.12840  0.85140  Biso   1.000  C  -0.037330
  H45      1.0000 0.63550  0.19390  0.46420  Biso   1.000  H  0.107174
  C65      1.0000 0.53210  0.13810  0.37720  Biso   1.000  C  -0.124630
  H46      1.0000 0.33810  0.14950  0.11330  Biso   1.000  H  0.107620
  C66      1.0000 0.43860  0.12440  0.27250  Biso   1.000  C  -0.036227
  H47      1.0000 0.19330  0.11220  0.84970  Biso   1.000  H  0.107536
  C67      1.0000 0.02320  0.07620  0.88550  Biso   1.000  C  0.628949
  H48      1.0000 0.56230  0.11460  0.43560  Biso   1.000  H  0.107174
  C68      1.0000 0.38480  0.07340  0.25800  Biso   1.000  C  0.610844
  Dy5      1.0000 0.81977  0.00545  0.91979  Biso   1.000  Dy  2.136276
  O23      1.0000 0.88350  0.06640  0.06510  Biso   1.000  O  -0.646811
  O24      1.0000 0.69070  0.05230  0.78020  Biso   1.000  O  -0.685668
  O25      1.0000 0.93330  0.95420  0.87350  Biso   1.000  O  -0.675107
  O26      1.0000 0.89060  0.95250  0.07030  Biso   1.000  O  -0.675663
  O27      1.0000 0.92510  0.06510  0.87370  Biso   1.000  O  -0.646844
  O28      1.0000 0.69300  0.93900  0.83270  Biso   1.000  O  -0.673724
  C69      1.0000 0.98760  0.07540  0.11700  Biso   1.000  C  0.631064
  C70      1.0000 0.62210  0.08050  0.70300  Biso   1.000  C  0.628259
  C71      1.0000 0.01990  0.12730  0.17120  Biso   1.000  C  -0.036335
  C72      1.0000 0.60400  0.13270  0.73640  Biso   1.000  C  -0.037338
  O29      1.0000 0.56850  0.06850  0.60240  Biso   1.000  O  -0.794458
  C73      1.0000 0.12330  0.14860  0.18340  Biso   1.000  C  -0.126834
  C74      1.0000 0.94590  0.15450  0.19870  Biso   1.000  C  -0.151695
  C75      1.0000 0.52150  0.16390  0.65610  Biso   1.000  C  -0.151025
  C76      1.0000 0.66840  0.15060  0.84710  Biso   1.000  C  -0.124364
  Dy6      1.0000 0.45375  0.00698  0.50377  Biso   1.000  Dy  1.954294
  H49      1.0000 0.17290  0.12990  0.16520  Biso   1.000  H  0.107600
  C77      1.0000 0.15060  0.19690  0.22240  Biso   1.000  C  -0.124640
  H50      1.0000 0.87740  0.14020  0.18970  Biso   1.000  H  0.107462
  C78      1.0000 0.97380  0.20290  0.23960  Biso   1.000  C  0.034876
  H51      1.0000 0.47760  0.15220  0.58260  Biso   1.000  H  0.107174
  C79      1.0000 0.50490  0.21170  0.68510  Biso   1.000  C  0.036060
  H52      1.0000 0.72240  0.12960  0.90110  Biso   1.000  H  0.107393
  C80      1.0000 0.65380  0.19810  0.87750  Biso   1.000  C  -0.123779
  O30      1.0000 0.31400  0.07350  0.50100  Biso   1.000  O  -0.581900
  O31      1.0000 0.39000  0.03210  0.65100  Biso   1.000  O  -0.586063
  O32      1.0000 0.57340  0.95550  0.65280  Biso   1.000  O  -0.793983
  H53      1.0000 0.21900  0.21110  0.23110  Biso   1.000  H  0.107607
  C81      1.0000 0.07560  0.22460  0.24890  Biso   1.000  C  0.037909
  C82      1.0000 0.90980  0.23940  0.28070  Biso   1.000  C  0.164221
  C83      1.0000 0.57080  0.22920  0.79590  Biso   1.000  C  0.036926
  C84      1.0000 0.41840  0.25150  0.61200  Biso   1.000  C  0.171066
  H54      1.0000 0.69800  0.20980  0.95100  Biso   1.000  H  0.107393
  N3       1.0000 0.31100  0.06320  0.59400  Biso   1.000  N  0.737778
  C85      1.0000 0.07860  0.27730  0.28340  Biso   1.000  C  0.038660
  C86      1.0000 0.90950  0.21990  0.39000  Biso   1.000  C  -0.530848
  C87      1.0000 0.78780  0.24870  0.18990  Biso   1.000  C  -0.531538
  C88      1.0000 0.98190  0.28680  0.30330  Biso   1.000  C  0.033992
  C89      1.0000 0.53750  0.28080  0.80290  Biso   1.000  C  0.038579
  C90      1.0000 0.29580  0.23320  0.57020  Biso   1.000  C  -0.531483
  C91      1.0000 0.44050  0.26700  0.51180  Biso   1.000  C  -0.531925
  C92      1.0000 0.44670  0.29450  0.69770  Biso   1.000  C  0.034076
  O33      1.0000 0.26300  0.08960  0.62900  Biso   1.000  O  -0.501121
  C93      1.0000 0.15520  0.31610  0.29910  Biso   1.000  C  -0.123300
  H55      1.0000 0.87890  0.24500  0.42060  Biso   1.000  H  0.161707
  H56      1.0000 0.98850  0.21300  0.44260  Biso   1.000  H  0.156166
  H57      1.0000 0.86420  0.19010  0.37650  Biso   1.000  H  0.166264
  H58      1.0000 0.75360  0.27470  0.21460  Biso   1.000  H  0.157797
  H59      1.0000 0.74360  0.21860  0.17850  Biso   1.000  H  0.157823
  H60      1.0000 0.78790  0.25830  0.12040  Biso   1.000  H  0.154778
  C94      1.0000 0.96280  0.33390  0.33490  Biso   1.000  C  -0.151385
  C95      1.0000 0.57780  0.31530  0.89360  Biso   1.000  C  -0.125338
  H61      1.0000 0.28430  0.22200  0.63300  Biso   1.000  H  0.159085
  H62      1.0000 0.28110  0.20630  0.51810  Biso   1.000  H  0.155599
  H63      1.0000 0.24340  0.26020  0.53320  Biso   1.000  H  0.158533
  H64      1.0000 0.39340  0.29530  0.47490  Biso   1.000  H  0.157747
  H65      1.0000 0.42050  0.23970  0.45980  Biso   1.000  H  0.154778
  H66      1.0000 0.52080  0.27520  0.53790  Biso   1.000  H  0.156146
  C96      1.0000 0.39790  0.34160  0.68280  Biso   1.000  C  -0.151054
  H67      1.0000 0.21780  0.31050  0.28480  Biso   1.000  H  0.107276
  C97      1.0000 0.13950  0.36250  0.33560  Biso   1.000  C  -0.126834
  H68      1.0000 0.89800  0.34020  0.34490  Biso   1.000  H  0.107583
  C98      1.0000 0.04180  0.37160  0.35140  Biso   1.000  C  -0.037330
  H69      1.0000 0.63550  0.30610  0.96420  Biso   1.000  H  0.107174
  C99      1.0000 0.53210  0.36190  0.87720  Biso   1.000  C  -0.124630
  H70      1.0000 0.33810  0.35050  0.61330  Biso   1.000  H  0.107620
  C100     1.0000 0.43860  0.37560  0.77250  Biso   1.000  C  -0.036227
  H71      1.0000 0.19330  0.38780  0.34970  Biso   1.000  H  0.107536
  C101     1.0000 0.02320  0.42380  0.38550  Biso   1.000  C  0.628949
  H72      1.0000 0.56230  0.38540  0.93560  Biso   1.000  H  0.107174
  C102     1.0000 0.38480  0.42660  0.75800  Biso   1.000  C  0.610844
  Dy7      1.0000 0.18023  0.50545  0.58021  Biso   1.000  Dy  2.136276
  O34      1.0000 0.11650  0.56640  0.43490  Biso   1.000  O  -0.646811
  O35      1.0000 0.30930  0.55230  0.71980  Biso   1.000  O  -0.685668
  O36      1.0000 0.06670  0.45420  0.62650  Biso   1.000  O  -0.675107
  O37      1.0000 0.10940  0.45250  0.42970  Biso   1.000  O  -0.675663
  O38      1.0000 0.07490  0.56510  0.62630  Biso   1.000  O  -0.646844
  O39      1.0000 0.30700  0.43900  0.66730  Biso   1.000  O  -0.673724
  C103     1.0000 0.01240  0.57540  0.38300  Biso   1.000  C  0.631064
  C104     1.0000 0.37790  0.58050  0.79700  Biso   1.000  C  0.628259
  C105     1.0000 0.98010  0.62730  0.32880  Biso   1.000  C  -0.036335
  C106     1.0000 0.39600  0.63270  0.76360  Biso   1.000  C  -0.037338
  O40      1.0000 0.43150  0.56850  0.89760  Biso   1.000  O  -0.794458
  C107     1.0000 0.87670  0.64860  0.31660  Biso   1.000  C  -0.126834
  C108     1.0000 0.05410  0.65450  0.30130  Biso   1.000  C  -0.151695
  C109     1.0000 0.47850  0.66390  0.84390  Biso   1.000  C  -0.151025
  C110     1.0000 0.33160  0.65060  0.65290  Biso   1.000  C  -0.124364
  Dy8      1.0000 0.54625  0.50698  0.99623  Biso   1.000  Dy  1.954294
  H73      1.0000 0.82710  0.62990  0.33480  Biso   1.000  H  0.107600
  C111     1.0000 0.84940  0.69690  0.27760  Biso   1.000  C  -0.124640
  H74      1.0000 0.12260  0.64020  0.31030  Biso   1.000  H  0.107462
  C112     1.0000 0.02620  0.70290  0.26040  Biso   1.000  C  0.034876
  H75      1.0000 0.52240  0.65220  0.91740  Biso   1.000  H  0.107174
  C113     1.0000 0.49510  0.71170  0.81490  Biso   1.000  C  0.036060
  H76      1.0000 0.27760  0.62960  0.59890  Biso   1.000  H  0.107393
  C114     1.0000 0.34620  0.69810  0.62250  Biso   1.000  C  -0.123779
  O41      1.0000 0.68600  0.57350  0.99900  Biso   1.000  O  -0.581900
  O42      1.0000 0.61000  0.53210  0.84900  Biso   1.000  O  -0.586063
  O43      1.0000 0.42660  0.45550  0.84720  Biso   1.000  O  -0.793983
  H77      1.0000 0.78100  0.71110  0.26890  Biso   1.000  H  0.107607
  C115     1.0000 0.92440  0.72460  0.25110  Biso   1.000  C  0.037909
  C116     1.0000 0.09020  0.73940  0.21930  Biso   1.000  C  0.164221
  C117     1.0000 0.42920  0.72920  0.70410  Biso   1.000  C  0.036926
  C118     1.0000 0.58160  0.75150  0.88800  Biso   1.000  C  0.171066
  H78      1.0000 0.30200  0.70980  0.54900  Biso   1.000  H  0.107393
  N4       1.0000 0.68900  0.56320  0.90600  Biso   1.000  N  0.737778
  C119     1.0000 0.92140  0.77730  0.21660  Biso   1.000  C  0.038660
  C120     1.0000 0.09050  0.71990  0.11000  Biso   1.000  C  -0.530848
  C121     1.0000 0.21220  0.74870  0.31010  Biso   1.000  C  -0.531538
  C122     1.0000 0.01810  0.78680  0.19670  Biso   1.000  C  0.033992
  C123     1.0000 0.46250  0.78080  0.69710  Biso   1.000  C  0.038579
  C124     1.0000 0.70420  0.73320  0.92980  Biso   1.000  C  -0.531483
  C125     1.0000 0.55950  0.76700  0.98820  Biso   1.000  C  -0.531925
  C126     1.0000 0.55330  0.79450  0.80230  Biso   1.000  C  0.034076
  O44      1.0000 0.73700  0.58960  0.87100  Biso   1.000  O  -0.501121
  C127     1.0000 0.84480  0.81610  0.20090  Biso   1.000  C  -0.123300
  H79      1.0000 0.12110  0.74500  0.07940  Biso   1.000  H  0.161707
  H80      1.0000 0.01150  0.71300  0.05740  Biso   1.000  H  0.156166
  H81      1.0000 0.13580  0.69010  0.12350  Biso   1.000  H  0.166264
  H82      1.0000 0.24640  0.77470  0.28540  Biso   1.000  H  0.157797
  H83      1.0000 0.25640  0.71860  0.32150  Biso   1.000  H  0.157823
  H84      1.0000 0.21210  0.75830  0.37960  Biso   1.000  H  0.154778
  C128     1.0000 0.03720  0.83390  0.16510  Biso   1.000  C  -0.151385
  C129     1.0000 0.42220  0.81530  0.60640  Biso   1.000  C  -0.125338
  H85      1.0000 0.71570  0.72200  0.86700  Biso   1.000  H  0.159085
  H86      1.0000 0.71890  0.70630  0.98190  Biso   1.000  H  0.155599
  H87      1.0000 0.75660  0.76020  0.96680  Biso   1.000  H  0.158533
  H88      1.0000 0.60660  0.79530  0.02510  Biso   1.000  H  0.157747
  H89      1.0000 0.57950  0.73970  0.04020  Biso   1.000  H  0.154778
  H90      1.0000 0.47920  0.77520  0.96210  Biso   1.000  H  0.156146
  C130     1.0000 0.60210  0.84160  0.81720  Biso   1.000  C  -0.151054
  H91      1.0000 0.78220  0.81050  0.21520  Biso   1.000  H  0.107276
  C131     1.0000 0.86050  0.86250  0.16440  Biso   1.000  C  -0.126834
  H92      1.0000 0.10200  0.84020  0.15510  Biso   1.000  H  0.107583
  C132     1.0000 0.95820  0.87160  0.14860  Biso   1.000  C  -0.037330
  H93      1.0000 0.36450  0.80610  0.53580  Biso   1.000  H  0.107174
  C133     1.0000 0.46790  0.86190  0.62280  Biso   1.000  C  -0.124630
  H94      1.0000 0.66190  0.85050  0.88670  Biso   1.000  H  0.107620
  C134     1.0000 0.56140  0.87560  0.72750  Biso   1.000  C  -0.036227
  H95      1.0000 0.80670  0.88780  0.15030  Biso   1.000  H  0.107536
  C135     1.0000 0.97680  0.92380  0.11450  Biso   1.000  C  0.628949
  H96      1.0000 0.43770  0.88540  0.56440  Biso   1.000  H  0.107174
  C136     1.0000 0.61520  0.92660  0.74200  Biso   1.000  C  0.610844
