data_image0
_cell_length_a       11.3768
_cell_length_b       12.6162
_cell_length_c       15.3401
_cell_angle_alpha    91.539
_cell_angle_beta     90
_cell_angle_gamma    90

_symmetry_space_group_name_H-M    "P 1"
_symmetry_int_tables_number       1

loop_
  _symmetry_equiv_pos_as_xyz
  'x, y, z'

loop_
  _atom_site_label
  _atom_site_occupancy
  _atom_site_fract_x
  _atom_site_fract_y
  _atom_site_fract_z
  _atom_site_thermal_displace_type
  _atom_site_B_iso_or_equiv
  _atom_site_type_symbol
  _atom_site_charge
  Co1      1.0000 0.90004  0.28766  0.77122  Biso   1.000  Co  0.962219
  Co2      1.0000 0.99803  0.50599  0.70758  Biso   1.000  Co  0.958437
  Co3      1.0000 0.40004  0.71234  0.72878  Biso   1.000  Co  0.962219
  Co4      1.0000 0.49803  0.49401  0.79242  Biso   1.000  Co  0.958437
  Co5      1.0000 0.09996  0.71234  0.22878  Biso   1.000  Co  0.962219
  Co6      1.0000 0.00197  0.49401  0.29242  Biso   1.000  Co  0.958437
  Co7      1.0000 0.59996  0.28766  0.27122  Biso   1.000  Co  0.962219
  Co8      1.0000 0.50197  0.50599  0.20758  Biso   1.000  Co  0.958437
  Co9      1.0000 0.00000  0.00000  0.00000  Biso   1.000  Co  0.880899
  Co10     1.0000 0.50000  0.00000  0.50000  Biso   1.000  Co  0.880899
  H1       1.0000 0.07400  0.32000  0.06400  Biso   1.000  H  0.145060
  H2       1.0000 0.57400  0.68000  0.43600  Biso   1.000  H  0.145060
  H3       1.0000 0.92600  0.68000  0.93600  Biso   1.000  H  0.145060
  H4       1.0000 0.42600  0.32000  0.56400  Biso   1.000  H  0.145060
  C1       1.0000 0.11190  0.31790  0.92948  Biso   1.000  C  -0.023221
  C2       1.0000 0.15280  0.37890  0.86109  Biso   1.000  C  -0.073920
  C3       1.0000 0.19360  0.48250  0.87821  Biso   1.000  C  -0.072207
  C4       1.0000 0.18900  0.52740  0.96226  Biso   1.000  C  -0.074479
  C5       1.0000 0.14050  0.46740  0.02933  Biso   1.000  C  -0.023312
  C6       1.0000 0.10720  0.36320  0.01299  Biso   1.000  C  -0.116883
  C7       1.0000 0.06310  0.20830  0.91562  Biso   1.000  C  0.618899
  C8       1.0000 0.15210  0.33460  0.76873  Biso   1.000  C  0.618910
  C9       1.0000 0.23380  0.54920  0.80420  Biso   1.000  C  0.648025
  C10      1.0000 0.23330  0.64000  0.97750  Biso   1.000  C  0.545226
  C11      1.0000 0.10880  0.51670  0.11586  Biso   1.000  C  0.629842
  C12      1.0000 0.61190  0.68210  0.57052  Biso   1.000  C  -0.023221
  C13      1.0000 0.65280  0.62110  0.63891  Biso   1.000  C  -0.073920
  C14      1.0000 0.69360  0.51750  0.62179  Biso   1.000  C  -0.072207
  C15      1.0000 0.68900  0.47260  0.53774  Biso   1.000  C  -0.074479
  C16      1.0000 0.64050  0.53260  0.47067  Biso   1.000  C  -0.023312
  C17      1.0000 0.60720  0.63680  0.48701  Biso   1.000  C  -0.116883
  C18      1.0000 0.56310  0.79170  0.58438  Biso   1.000  C  0.618899
  C19      1.0000 0.65210  0.66540  0.73127  Biso   1.000  C  0.618910
  C20      1.0000 0.73380  0.45080  0.69580  Biso   1.000  C  0.648025
  C21      1.0000 0.73330  0.36000  0.52250  Biso   1.000  C  0.545226
  C22      1.0000 0.60880  0.48330  0.38414  Biso   1.000  C  0.629842
  C23      1.0000 0.88810  0.68210  0.07052  Biso   1.000  C  -0.023221
  C24      1.0000 0.84720  0.62110  0.13891  Biso   1.000  C  -0.073920
  C25      1.0000 0.80640  0.51750  0.12179  Biso   1.000  C  -0.072207
  C26      1.0000 0.81100  0.47260  0.03774  Biso   1.000  C  -0.074479
  C27      1.0000 0.85950  0.53260  0.97067  Biso   1.000  C  -0.023312
  C28      1.0000 0.89280  0.63680  0.98701  Biso   1.000  C  -0.116883
  C29      1.0000 0.93690  0.79170  0.08438  Biso   1.000  C  0.618899
  C30      1.0000 0.84790  0.66540  0.23127  Biso   1.000  C  0.618910
  C31      1.0000 0.76620  0.45080  0.19580  Biso   1.000  C  0.648025
  C32      1.0000 0.76670  0.36000  0.02250  Biso   1.000  C  0.545226
  C33      1.0000 0.89120  0.48330  0.88414  Biso   1.000  C  0.629842
  C34      1.0000 0.38810  0.31790  0.42948  Biso   1.000  C  -0.023221
  C35      1.0000 0.34720  0.37890  0.36109  Biso   1.000  C  -0.073920
  C36      1.0000 0.30640  0.48250  0.37821  Biso   1.000  C  -0.072207
  C37      1.0000 0.31100  0.52740  0.46226  Biso   1.000  C  -0.074479
  C38      1.0000 0.35950  0.46740  0.52933  Biso   1.000  C  -0.023312
  C39      1.0000 0.39280  0.36320  0.51299  Biso   1.000  C  -0.116883
  C40      1.0000 0.43690  0.20830  0.41562  Biso   1.000  C  0.618899
  C41      1.0000 0.34790  0.33460  0.26873  Biso   1.000  C  0.618910
  C42      1.0000 0.26620  0.54920  0.30420  Biso   1.000  C  0.648025
  C43      1.0000 0.26670  0.64000  0.47750  Biso   1.000  C  0.545226
  C44      1.0000 0.39120  0.51670  0.61586  Biso   1.000  C  0.629842
  O1       1.0000 0.07881  0.14565  0.97667  Biso   1.000  O  -0.510115
  O2       1.0000 0.00811  0.18520  0.84568  Biso   1.000  O  -0.508689
  O3       1.0000 0.05758  0.34849  0.72448  Biso   1.000  O  -0.555681
  O4       1.0000 0.24048  0.28910  0.74003  Biso   1.000  O  -0.486794
  O5       1.0000 0.16590  0.56497  0.74240  Biso   1.000  O  -0.509173
  O6       1.0000 0.33691  0.58893  0.81084  Biso   1.000  O  -0.552058
  O7       1.0000 0.18143  0.71278  0.93825  Biso   1.000  O  -0.522957
  O8       1.0000 0.32275  0.65348  0.02459  Biso   1.000  O  -0.519817
  O9       1.0000 0.07045  0.45653  0.17373  Biso   1.000  O  -0.509016
  O10      1.0000 0.11596  0.61612  0.12230  Biso   1.000  O  -0.508746
  O11      1.0000 0.57881  0.85435  0.52333  Biso   1.000  O  -0.510115
  O12      1.0000 0.50811  0.81480  0.65432  Biso   1.000  O  -0.508689
  O13      1.0000 0.55758  0.65151  0.77552  Biso   1.000  O  -0.555681
  O14      1.0000 0.74048  0.71090  0.75997  Biso   1.000  O  -0.486794
  O15      1.0000 0.66590  0.43503  0.75760  Biso   1.000  O  -0.509173
  O16      1.0000 0.83691  0.41107  0.68916  Biso   1.000  O  -0.552058
  O17      1.0000 0.68143  0.28722  0.56175  Biso   1.000  O  -0.522957
  O18      1.0000 0.82275  0.34652  0.47541  Biso   1.000  O  -0.519817
  O19      1.0000 0.57045  0.54347  0.32627  Biso   1.000  O  -0.509016
  O20      1.0000 0.61596  0.38388  0.37770  Biso   1.000  O  -0.508746
  O21      1.0000 0.92119  0.85435  0.02333  Biso   1.000  O  -0.510115
  O22      1.0000 0.99189  0.81480  0.15432  Biso   1.000  O  -0.508689
  O23      1.0000 0.94242  0.65151  0.27552  Biso   1.000  O  -0.555681
  O24      1.0000 0.75952  0.71090  0.25997  Biso   1.000  O  -0.486794
  O25      1.0000 0.83410  0.43503  0.25760  Biso   1.000  O  -0.509173
  O26      1.0000 0.66309  0.41107  0.18916  Biso   1.000  O  -0.552058
  O27      1.0000 0.81857  0.28722  0.06175  Biso   1.000  O  -0.522957
  O28      1.0000 0.67725  0.34652  0.97541  Biso   1.000  O  -0.519817
  O29      1.0000 0.92955  0.54347  0.82627  Biso   1.000  O  -0.509016
  O30      1.0000 0.88404  0.38388  0.87770  Biso   1.000  O  -0.508746
  O31      1.0000 0.42119  0.14565  0.47667  Biso   1.000  O  -0.510115
  O32      1.0000 0.49189  0.18520  0.34568  Biso   1.000  O  -0.508689
  O33      1.0000 0.44242  0.34849  0.22448  Biso   1.000  O  -0.555681
  O34      1.0000 0.25952  0.28910  0.24003  Biso   1.000  O  -0.486794
  O35      1.0000 0.33410  0.56497  0.24240  Biso   1.000  O  -0.509173
  O36      1.0000 0.16309  0.58893  0.31084  Biso   1.000  O  -0.552058
  O37      1.0000 0.31857  0.71278  0.43825  Biso   1.000  O  -0.522957
  O38      1.0000 0.17725  0.65348  0.52459  Biso   1.000  O  -0.519817
  O39      1.0000 0.42955  0.45653  0.67373  Biso   1.000  O  -0.509016
  O40      1.0000 0.38404  0.61612  0.62230  Biso   1.000  O  -0.508746
