data_image0
_cell_length_a       15.653
_cell_length_b       13.533
_cell_length_c       13.615
_cell_angle_alpha    90
_cell_angle_beta     103.918
_cell_angle_gamma    90

_symmetry_space_group_name_H-M    "P 1"
_symmetry_int_tables_number       1

loop_
  _symmetry_equiv_pos_as_xyz
  'x, y, z'

loop_
  _atom_site_label
  _atom_site_occupancy
  _atom_site_fract_x
  _atom_site_fract_y
  _atom_site_fract_z
  _atom_site_thermal_displace_type
  _atom_site_B_iso_or_equiv
  _atom_site_type_symbol
  _atom_site_charge
  Cu1      1.0000 0.57263  0.05758  0.52446  Biso   1.000  Cu  0.762688
  O1       1.0000 0.51110  0.14520  0.41640  Biso   1.000  O  -0.524584
  O2       1.0000 0.39090  0.04880  0.37670  Biso   1.000  O  -0.524006
  O3       1.0000 0.39810  0.46970  0.07790  Biso   1.000  O  -0.523968
  O4       1.0000 0.51730  0.37260  0.11850  Biso   1.000  O  -0.523911
  N1       1.0000 0.70540  0.38560  0.06300  Biso   1.000  N  -0.252555
  N2       1.0000 0.16110  0.29280  0.18780  Biso   1.000  N  0.051623
  C1       1.0000 0.38790  0.19990  0.29320  Biso   1.000  C  -0.022856
  C2       1.0000 0.43590  0.26320  0.24590  Biso   1.000  C  -0.149146
  H1       1.0000 0.49830  0.25810  0.26030  Biso   1.000  H  0.113855
  C3       1.0000 0.39260  0.33300  0.17840  Biso   1.000  C  -0.021248
  C4       1.0000 0.30180  0.34110  0.15920  Biso   1.000  C  -0.191965
  H2       1.0000 0.27160  0.38880  0.11220  Biso   1.000  H  0.116605
  C5       1.0000 0.25560  0.28010  0.20830  Biso   1.000  C  0.183156
  C6       1.0000 0.29630  0.20750  0.27460  Biso   1.000  C  -0.198553
  H3       1.0000 0.26330  0.16450  0.30650  Biso   1.000  H  0.116433
  C7       1.0000 0.12940  0.38520  0.18400  Biso   1.000  C  -0.018689
  H4       1.0000 0.16870  0.43970  0.19670  Biso   1.000  H  0.092181
  C8       1.0000 0.04170  0.40050  0.16200  Biso   1.000  C  -0.186479
  H5       1.0000 0.02060  0.46640  0.16090  Biso   1.000  H  0.116790
  C9       1.0000 0.98230  0.32510  0.14130  Biso   1.000  C  0.085617
  C10      1.0000 0.01760  0.22990  0.14690  Biso   1.000  C  -0.180908
  H6       1.0000 0.97920  0.17450  0.13580  Biso   1.000  H  0.116790
  C11      1.0000 0.10600  0.21530  0.16800  Biso   1.000  C  -0.022876
  H7       1.0000 0.12890  0.15020  0.16870  Biso   1.000  H  0.092205
  C12      1.0000 0.88620  0.34360  0.11390  Biso   1.000  C  0.090786
  C13      1.0000 0.85580  0.43970  0.09060  Biso   1.000  C  -0.183206
  H8       1.0000 0.89600  0.49240  0.09100  Biso   1.000  H  0.116669
  C14      1.0000 0.76730  0.45650  0.06720  Biso   1.000  C  0.069429
  H9       1.0000 0.74770  0.52250  0.05290  Biso   1.000  H  0.093407
  C15      1.0000 0.73640  0.29490  0.08280  Biso   1.000  C  0.074892
  H10      1.0000 0.69520  0.24280  0.07940  Biso   1.000  H  0.092819
  C16      1.0000 0.82490  0.27110  0.10810  Biso   1.000  C  -0.179984
  H11      1.0000 0.84280  0.20430  0.12150  Biso   1.000  H  0.116266
  C17      1.0000 0.43390  0.12620  0.36870  Biso   1.000  C  0.601067
  C18      1.0000 0.44010  0.39700  0.12070  Biso   1.000  C  0.601655
  Cu2      1.0000 0.42737  0.55758  0.97554  Biso   1.000  Cu  0.762688
  O5       1.0000 0.48890  0.64520  0.08360  Biso   1.000  O  -0.524584
  O6       1.0000 0.60910  0.54880  0.12330  Biso   1.000  O  -0.524006
  O7       1.0000 0.60190  0.96970  0.42210  Biso   1.000  O  -0.523968
  O8       1.0000 0.48270  0.87260  0.38150  Biso   1.000  O  -0.523911
  N3       1.0000 0.29460  0.88560  0.43700  Biso   1.000  N  -0.252555
  N4       1.0000 0.83890  0.79280  0.31220  Biso   1.000  N  0.051623
  C19      1.0000 0.61210  0.69990  0.20680  Biso   1.000  C  -0.022856
  C20      1.0000 0.56410  0.76320  0.25410  Biso   1.000  C  -0.149146
  H12      1.0000 0.50170  0.75810  0.23970  Biso   1.000  H  0.113855
  C21      1.0000 0.60740  0.83300  0.32160  Biso   1.000  C  -0.021248
  C22      1.0000 0.69820  0.84110  0.34080  Biso   1.000  C  -0.191965
  H13      1.0000 0.72840  0.88880  0.38780  Biso   1.000  H  0.116605
  C23      1.0000 0.74440  0.78010  0.29170  Biso   1.000  C  0.183156
  C24      1.0000 0.70370  0.70750  0.22540  Biso   1.000  C  -0.198553
  H14      1.0000 0.73670  0.66450  0.19350  Biso   1.000  H  0.116433
  C25      1.0000 0.87060  0.88520  0.31600  Biso   1.000  C  -0.018689
  H15      1.0000 0.83130  0.93970  0.30330  Biso   1.000  H  0.092181
  C26      1.0000 0.95830  0.90050  0.33800  Biso   1.000  C  -0.186479
  H16      1.0000 0.97940  0.96640  0.33910  Biso   1.000  H  0.116790
  C27      1.0000 0.01770  0.82510  0.35870  Biso   1.000  C  0.085617
  C28      1.0000 0.98240  0.72990  0.35310  Biso   1.000  C  -0.180908
  H17      1.0000 0.02080  0.67450  0.36420  Biso   1.000  H  0.116790
  C29      1.0000 0.89400  0.71530  0.33200  Biso   1.000  C  -0.022876
  H18      1.0000 0.87110  0.65020  0.33130  Biso   1.000  H  0.092205
  C30      1.0000 0.11380  0.84360  0.38610  Biso   1.000  C  0.090786
  C31      1.0000 0.14420  0.93970  0.40940  Biso   1.000  C  -0.183206
  H19      1.0000 0.10400  0.99240  0.40900  Biso   1.000  H  0.116669
  C32      1.0000 0.23270  0.95650  0.43280  Biso   1.000  C  0.069429
  H20      1.0000 0.25230  0.02250  0.44710  Biso   1.000  H  0.093407
  C33      1.0000 0.26360  0.79490  0.41720  Biso   1.000  C  0.074892
  H21      1.0000 0.30480  0.74280  0.42060  Biso   1.000  H  0.092819
  C34      1.0000 0.17510  0.77110  0.39190  Biso   1.000  C  -0.179984
  H22      1.0000 0.15720  0.70430  0.37850  Biso   1.000  H  0.116266
  C35      1.0000 0.56610  0.62620  0.13130  Biso   1.000  C  0.601067
  C36      1.0000 0.55990  0.89700  0.37930  Biso   1.000  C  0.601655
  Cu3      1.0000 0.42737  0.94242  0.47554  Biso   1.000  Cu  0.762688
  O9       1.0000 0.48890  0.85480  0.58360  Biso   1.000  O  -0.524584
  O10      1.0000 0.60910  0.95120  0.62330  Biso   1.000  O  -0.524006
  O11      1.0000 0.60190  0.53030  0.92210  Biso   1.000  O  -0.523968
  O12      1.0000 0.48270  0.62740  0.88150  Biso   1.000  O  -0.523911
  N5       1.0000 0.29460  0.61440  0.93700  Biso   1.000  N  -0.252555
  N6       1.0000 0.83890  0.70720  0.81220  Biso   1.000  N  0.051623
  C37      1.0000 0.61210  0.80010  0.70680  Biso   1.000  C  -0.022856
  C38      1.0000 0.56410  0.73680  0.75410  Biso   1.000  C  -0.149146
  H23      1.0000 0.50170  0.74190  0.73970  Biso   1.000  H  0.113855
  C39      1.0000 0.60740  0.66700  0.82160  Biso   1.000  C  -0.021248
  C40      1.0000 0.69820  0.65890  0.84080  Biso   1.000  C  -0.191965
  H24      1.0000 0.72840  0.61120  0.88780  Biso   1.000  H  0.116605
  C41      1.0000 0.74440  0.71990  0.79170  Biso   1.000  C  0.183156
  C42      1.0000 0.70370  0.79250  0.72540  Biso   1.000  C  -0.198553
  H25      1.0000 0.73670  0.83550  0.69350  Biso   1.000  H  0.116433
  C43      1.0000 0.87060  0.61480  0.81600  Biso   1.000  C  -0.018689
  H26      1.0000 0.83130  0.56030  0.80330  Biso   1.000  H  0.092181
  C44      1.0000 0.95830  0.59950  0.83800  Biso   1.000  C  -0.186479
  H27      1.0000 0.97940  0.53360  0.83910  Biso   1.000  H  0.116790
  C45      1.0000 0.01770  0.67490  0.85870  Biso   1.000  C  0.085617
  C46      1.0000 0.98240  0.77010  0.85310  Biso   1.000  C  -0.180908
  H28      1.0000 0.02080  0.82550  0.86420  Biso   1.000  H  0.116790
  C47      1.0000 0.89400  0.78470  0.83200  Biso   1.000  C  -0.022876
  H29      1.0000 0.87110  0.84980  0.83130  Biso   1.000  H  0.092205
  C48      1.0000 0.11380  0.65640  0.88610  Biso   1.000  C  0.090786
  C49      1.0000 0.14420  0.56030  0.90940  Biso   1.000  C  -0.183206
  H30      1.0000 0.10400  0.50760  0.90900  Biso   1.000  H  0.116669
  C50      1.0000 0.23270  0.54350  0.93280  Biso   1.000  C  0.069429
  H31      1.0000 0.25230  0.47750  0.94710  Biso   1.000  H  0.093407
  C51      1.0000 0.26360  0.70510  0.91720  Biso   1.000  C  0.074892
  H32      1.0000 0.30480  0.75720  0.92060  Biso   1.000  H  0.092819
  C52      1.0000 0.17510  0.72890  0.89190  Biso   1.000  C  -0.179984
  H33      1.0000 0.15720  0.79570  0.87850  Biso   1.000  H  0.116266
  C53      1.0000 0.56610  0.87380  0.63130  Biso   1.000  C  0.601067
  C54      1.0000 0.55990  0.60300  0.87930  Biso   1.000  C  0.601655
  Cu4      1.0000 0.57263  0.44242  0.02446  Biso   1.000  Cu  0.762688
  O13      1.0000 0.51110  0.35480  0.91640  Biso   1.000  O  -0.524584
  O14      1.0000 0.39090  0.45120  0.87670  Biso   1.000  O  -0.524006
  O15      1.0000 0.39810  0.03030  0.57790  Biso   1.000  O  -0.523968
  O16      1.0000 0.51730  0.12740  0.61850  Biso   1.000  O  -0.523911
  N7       1.0000 0.70540  0.11440  0.56300  Biso   1.000  N  -0.252555
  N8       1.0000 0.16110  0.20720  0.68780  Biso   1.000  N  0.051623
  C55      1.0000 0.38790  0.30010  0.79320  Biso   1.000  C  -0.022856
  C56      1.0000 0.43590  0.23680  0.74590  Biso   1.000  C  -0.149146
  H34      1.0000 0.49830  0.24190  0.76030  Biso   1.000  H  0.113855
  C57      1.0000 0.39260  0.16700  0.67840  Biso   1.000  C  -0.021248
  C58      1.0000 0.30180  0.15890  0.65920  Biso   1.000  C  -0.191965
  H35      1.0000 0.27160  0.11120  0.61220  Biso   1.000  H  0.116605
  C59      1.0000 0.25560  0.21990  0.70830  Biso   1.000  C  0.183156
  C60      1.0000 0.29630  0.29250  0.77460  Biso   1.000  C  -0.198553
  H36      1.0000 0.26330  0.33550  0.80650  Biso   1.000  H  0.116433
  C61      1.0000 0.12940  0.11480  0.68400  Biso   1.000  C  -0.018689
  H37      1.0000 0.16870  0.06030  0.69670  Biso   1.000  H  0.092181
  C62      1.0000 0.04170  0.09950  0.66200  Biso   1.000  C  -0.186479
  H38      1.0000 0.02060  0.03360  0.66090  Biso   1.000  H  0.116790
  C63      1.0000 0.98230  0.17490  0.64130  Biso   1.000  C  0.085617
  C64      1.0000 0.01760  0.27010  0.64690  Biso   1.000  C  -0.180908
  H39      1.0000 0.97920  0.32550  0.63580  Biso   1.000  H  0.116790
  C65      1.0000 0.10600  0.28470  0.66800  Biso   1.000  C  -0.022876
  H40      1.0000 0.12890  0.34980  0.66870  Biso   1.000  H  0.092205
  C66      1.0000 0.88620  0.15640  0.61390  Biso   1.000  C  0.090786
  C67      1.0000 0.85580  0.06030  0.59060  Biso   1.000  C  -0.183206
  H41      1.0000 0.89600  0.00760  0.59100  Biso   1.000  H  0.116669
  C68      1.0000 0.76730  0.04350  0.56720  Biso   1.000  C  0.069429
  H42      1.0000 0.74770  0.97750  0.55290  Biso   1.000  H  0.093407
  C69      1.0000 0.73640  0.20510  0.58280  Biso   1.000  C  0.074892
  H43      1.0000 0.69520  0.25720  0.57940  Biso   1.000  H  0.092819
  C70      1.0000 0.82490  0.22890  0.60810  Biso   1.000  C  -0.179984
  H44      1.0000 0.84280  0.29570  0.62150  Biso   1.000  H  0.116266
  C71      1.0000 0.43390  0.37380  0.86870  Biso   1.000  C  0.601067
  C72      1.0000 0.44010  0.10300  0.62070  Biso   1.000  C  0.601655
