data_image0
_cell_length_a       7.5739
_cell_length_b       8.6167
_cell_length_c       9.867
_cell_angle_alpha    86.99
_cell_angle_beta     89.87
_cell_angle_gamma    85.24

_symmetry_space_group_name_H-M    "P 1"
_symmetry_int_tables_number       1

loop_
  _symmetry_equiv_pos_as_xyz
  'x, y, z'

loop_
  _atom_site_label
  _atom_site_occupancy
  _atom_site_fract_x
  _atom_site_fract_y
  _atom_site_fract_z
  _atom_site_thermal_displace_type
  _atom_site_B_iso_or_equiv
  _atom_site_type_symbol
  _atom_site_charge
  Eu1      1.0000 0.56547  0.88473  0.83312  Biso   1.000  Eu  1.373692
  O1       1.0000 0.41040  0.27780  0.96110  Biso   1.000  O  -0.536930
  O2       1.0000 0.86690  0.76120  0.86470  Biso   1.000  O  -0.534855
  O3       1.0000 0.57040  0.64450  0.72450  Biso   1.000  O  -0.545324
  O4       1.0000 0.50140  0.16200  0.77240  Biso   1.000  O  -0.534235
  O5       1.0000 0.30980  0.97060  0.99270  Biso   1.000  O  -0.638189
  O6       1.0000 0.28290  0.76020  0.88190  Biso   1.000  O  -0.535623
  N1       1.0000 0.03060  0.64900  0.03870  Biso   1.000  N  -0.083306
  N2       1.0000 0.43380  0.45600  0.62800  Biso   1.000  N  -0.051326
  C1       1.0000 0.42570  0.27310  0.83450  Biso   1.000  C  0.630629
  C2       1.0000 0.92610  0.64250  0.93100  Biso   1.000  C  0.530728
  C3       1.0000 0.87510  0.48840  0.89010  Biso   1.000  C  -0.260596
  H1       1.0000 0.74640  0.48390  0.90570  Biso   1.000  H  0.105039
  H2       1.0000 0.89610  0.48150  0.79150  Biso   1.000  H  0.105582
  C4       1.0000 0.53450  0.57360  0.62210  Biso   1.000  C  0.527128
  C5       1.0000 0.23480  0.84610  0.97420  Biso   1.000  C  0.618822
  C6       1.0000 0.09120  0.79840  0.06970  Biso   1.000  C  -0.271577
  H3       1.0000 0.13670  0.79230  0.16390  Biso   1.000  H  0.105484
  H4       1.0000 0.98990  0.87880  0.06360  Biso   1.000  H  0.105222
  C7       1.0000 0.34160  0.41440  0.75340  Biso   1.000  C  -0.276086
  H5       1.0000 0.21860  0.39460  0.73040  Biso   1.000  H  0.105222
  H6       1.0000 0.33540  0.50490  0.81160  Biso   1.000  H  0.105239
  C8       1.0000 0.61020  0.62840  0.48940  Biso   1.000  C  -0.255336
  H7       1.0000 0.56890  0.73970  0.47180  Biso   1.000  H  0.105313
  H8       1.0000 0.74080  0.62190  0.49820  Biso   1.000  H  0.105283
  Eu2      1.0000 0.43453  0.11527  0.16688  Biso   1.000  Eu  1.373692
  O7       1.0000 0.58960  0.72220  0.03890  Biso   1.000  O  -0.536930
  O8       1.0000 0.13310  0.23880  0.13530  Biso   1.000  O  -0.534855
  O9       1.0000 0.42960  0.35550  0.27550  Biso   1.000  O  -0.545324
  O10      1.0000 0.49860  0.83800  0.22760  Biso   1.000  O  -0.534235
  O11      1.0000 0.69020  0.02940  0.00730  Biso   1.000  O  -0.638189
  O12      1.0000 0.71710  0.23980  0.11810  Biso   1.000  O  -0.535623
  N3       1.0000 0.96940  0.35100  0.96130  Biso   1.000  N  -0.083306
  N4       1.0000 0.56620  0.54400  0.37200  Biso   1.000  N  -0.051326
  C9       1.0000 0.57430  0.72690  0.16550  Biso   1.000  C  0.630629
  C10      1.0000 0.07390  0.35750  0.06900  Biso   1.000  C  0.530728
  C11      1.0000 0.12490  0.51160  0.10990  Biso   1.000  C  -0.260596
  H9       1.0000 0.25360  0.51610  0.09430  Biso   1.000  H  0.105039
  H10      1.0000 0.10390  0.51850  0.20850  Biso   1.000  H  0.105582
  C12      1.0000 0.46550  0.42640  0.37790  Biso   1.000  C  0.527128
  C13      1.0000 0.76520  0.15390  0.02580  Biso   1.000  C  0.618822
  C14      1.0000 0.90880  0.20160  0.93030  Biso   1.000  C  -0.271577
  H11      1.0000 0.86330  0.20770  0.83610  Biso   1.000  H  0.105484
  H12      1.0000 0.01010  0.12120  0.93640  Biso   1.000  H  0.105222
  C15      1.0000 0.65840  0.58560  0.24660  Biso   1.000  C  -0.276086
  H13      1.0000 0.78140  0.60540  0.26960  Biso   1.000  H  0.105222
  H14      1.0000 0.66460  0.49510  0.18840  Biso   1.000  H  0.105239
  C16      1.0000 0.38980  0.37160  0.51060  Biso   1.000  C  -0.255336
  H15      1.0000 0.43110  0.26030  0.52820  Biso   1.000  H  0.105313
  H16      1.0000 0.25920  0.37810  0.50180  Biso   1.000  H  0.105283
