data_image0
_cell_length_a       6.997
_cell_length_b       25.4831
_cell_length_c       28.2642
_cell_angle_alpha    90
_cell_angle_beta     92.712
_cell_angle_gamma    90

_symmetry_space_group_name_H-M    "P 1"
_symmetry_int_tables_number       1

loop_
  _symmetry_equiv_pos_as_xyz
  'x, y, z'

loop_
  _atom_site_label
  _atom_site_occupancy
  _atom_site_fract_x
  _atom_site_fract_y
  _atom_site_fract_z
  _atom_site_thermal_displace_type
  _atom_site_B_iso_or_equiv
  _atom_site_type_symbol
  _atom_site_charge
  Mn1      1.0000 0.20060  0.93068  0.24834  Biso   1.000  Mn  1.018544
  Mn2      1.0000 0.65369  0.53332  0.73533  Biso   1.000  Mn  1.069200
  O1       1.0000 0.87810  0.58410  0.76825  Biso   1.000  O  -0.600228
  O2       1.0000 0.46770  0.89828  0.22233  Biso   1.000  O  -0.598461
  O3       1.0000 0.53920  0.47257  0.20630  Biso   1.000  O  -0.600228
  O4       1.0000 0.12430  0.62150  0.80406  Biso   1.000  O  -0.529710
  O5       1.0000 0.20830  0.86440  0.18867  Biso   1.000  O  -0.546118
  O6       1.0000 0.83330  0.01499  0.80837  Biso   1.000  O  -0.502877
  C1       1.0000 0.99070  0.75930  0.04160  Biso   1.000  C  0.036940
  C2       1.0000 0.06260  0.78620  0.95870  Biso   1.000  C  0.037666
  O7       1.0000 0.54270  0.97950  0.80140  Biso   1.000  O  -0.532753
  C3       1.0000 0.35540  0.71260  0.95820  Biso   1.000  C  0.037461
  O8       1.0000 0.82840  0.50260  0.20308  Biso   1.000  O  -0.519569
  C4       1.0000 0.28410  0.68680  0.04220  Biso   1.000  C  0.036676
  C5       1.0000 0.09630  0.75360  0.00050  Biso   1.000  C  0.012581
  C6       1.0000 0.38420  0.86820  0.19080  Biso   1.000  C  0.606104
  C7       1.0000 0.24600  0.71760  0.99900  Biso   1.000  C  -0.005210
  C8       1.0000 0.71390  0.97960  0.81660  Biso   1.000  C  0.603068
  C9       1.0000 0.50800  0.67490  0.96100  Biso   1.000  C  0.036684
  C10      1.0000 0.94870  0.61210  0.80120  Biso   1.000  C  0.604398
  C11      1.0000 0.83120  0.63280  0.83960  Biso   1.000  C  -0.030650
  C12      1.0000 0.02000  0.72720  0.08230  Biso   1.000  C  -0.130721
  H1       1.0000 0.94020  0.72970  0.10760  Biso   1.000  H  0.106298
  C13      1.0000 0.32760  0.74370  0.91640  Biso   1.000  C  -0.096458
  H2       1.0000 0.40360  0.73990  0.89050  Biso   1.000  H  0.106298
  C14      1.0000 0.44300  0.65080  0.03820  Biso   1.000  C  0.031957
  C15      1.0000 0.18250  0.68940  0.08320  Biso   1.000  C  -0.135845
  H3       1.0000 0.21400  0.66880  0.10960  Biso   1.000  H  0.106307
  C16      1.0000 0.80450  0.82480  0.12430  Biso   1.000  C  -0.132115
  H4       1.0000 0.93740  0.82570  0.12750  Biso   1.000  H  0.106307
  C17      1.0000 0.86160  0.86090  0.92040  Biso   1.000  C  0.062448
  C18      1.0000 0.62200  0.66350  0.91750  Biso   1.000  C  0.062015
  C19      1.0000 0.59130  0.54280  0.15360  Biso   1.000  C  -0.031759
  C20      1.0000 0.91030  0.82220  0.96170  Biso   1.000  C  0.034604
  C21      1.0000 0.49470  0.61340  0.08080  Biso   1.000  C  0.060559
  C22      1.0000 0.95290  0.93110  0.86770  Biso   1.000  C  -0.123596
  H5       1.0000 0.04820  0.95240  0.85630  Biso   1.000  H  0.106682
  C23      1.0000 0.16630  0.78310  0.91710  Biso   1.000  C  -0.123679
  H6       1.0000 0.13650  0.80450  0.89110  Biso   1.000  H  0.106495
  C24      1.0000 0.77280  0.93730  0.85120  Biso   1.000  C  -0.030416
  C25      1.0000 0.69740  0.83950  0.16340  Biso   1.000  C  -0.125562
  H7       1.0000 0.75750  0.84760  0.19250  Biso   1.000  H  0.106614
  C26      1.0000 0.71890  0.80920  0.08180  Biso   1.000  C  0.063884
  C27      1.0000 0.55150  0.64670  0.00030  Biso   1.000  C  -0.157861
  H8       1.0000 0.65660  0.62430  0.00120  Biso   1.000  H  0.106307
  C28      1.0000 0.50420  0.84130  0.15700  Biso   1.000  C  -0.028804
  C29      1.0000 0.65380  0.50480  0.19040  Biso   1.000  C  0.607085
  C30      1.0000 0.79790  0.82620  0.99920  Biso   1.000  C  -0.151357
  H9       1.0000 0.69350  0.84880  0.99790  Biso   1.000  H  0.106536
  C31      1.0000 0.53170  0.64760  0.87280  Biso   1.000  C  -0.136187
  H10      1.0000 0.39890  0.64750  0.86930  Biso   1.000  H  0.106206
  C32      1.0000 0.63690  0.63290  0.83570  Biso   1.000  C  -0.123611
  H11      1.0000 0.57500  0.62280  0.80730  Biso   1.000  H  0.106305
  C33      1.0000 0.92240  0.64820  0.88230  Biso   1.000  C  -0.125562
  H12      1.0000 0.05540  0.64820  0.88510  Biso   1.000  H  0.106305
  C34      1.0000 0.63170  0.90470  0.86960  Biso   1.000  C  -0.123684
  H13      1.0000 0.50560  0.90830  0.85820  Biso   1.000  H  0.106638
  C35      1.0000 0.41990  0.82190  0.11430  Biso   1.000  C  -0.123674
  H14      1.0000 0.28740  0.81850  0.11190  Biso   1.000  H  0.106424
  C36      1.0000 0.83820  0.79670  0.03930  Biso   1.000  C  0.031158
  C37      1.0000 0.67820  0.61120  0.09870  Biso   1.000  C  -0.123639
  H15      1.0000 0.76840  0.63420  0.08730  Biso   1.000  H  0.106298
  C38      1.0000 0.00100  0.89300  0.90170  Biso   1.000  C  -0.131990
  H16      1.0000 0.12820  0.88900  0.91210  Biso   1.000  H  0.106536
  C39      1.0000 0.35690  0.57990  0.09970  Biso   1.000  C  -0.136787
  H17      1.0000 0.23070  0.58170  0.08790  Biso   1.000  H  0.106305
  C40      1.0000 0.51920  0.80810  0.07700  Biso   1.000  C  -0.123639
  H18      1.0000 0.45710  0.79790  0.04870  Biso   1.000  H  0.106614
  C41      1.0000 0.82010  0.66350  0.92030  Biso   1.000  C  -0.125255
  H19      1.0000 0.88480  0.67390  0.94820  Biso   1.000  H  0.106614
  C42      1.0000 0.40650  0.54400  0.13600  Biso   1.000  C  -0.126044
  H20      1.0000 0.31530  0.52160  0.14770  Biso   1.000  H  0.106661
  C43      1.0000 0.67330  0.86860  0.90310  Biso   1.000  C  -0.123674
  H21      1.0000 0.57550  0.84850  0.91500  Biso   1.000  H  0.106307
  C44      1.0000 0.73320  0.57570  0.13340  Biso   1.000  C  -0.136797
  H22      1.0000 0.86110  0.57300  0.14370  Biso   1.000  H  0.106424
  Mn3      1.0000 0.79940  0.43068  0.25166  Biso   1.000  Mn  1.018544
  Mn4      1.0000 0.34631  0.03332  0.76467  Biso   1.000  Mn  1.069200
  O9       1.0000 0.12190  0.08410  0.73175  Biso   1.000  O  -0.600228
  O10      1.0000 0.53230  0.39828  0.27767  Biso   1.000  O  -0.598461
  O11      1.0000 0.46080  0.97257  0.29370  Biso   1.000  O  -0.600228
  O12      1.0000 0.87570  0.12150  0.69594  Biso   1.000  O  -0.529710
  O13      1.0000 0.79170  0.36440  0.31133  Biso   1.000  O  -0.546118
  O14      1.0000 0.16670  0.51499  0.69163  Biso   1.000  O  -0.502877
  C45      1.0000 0.00930  0.25930  0.45840  Biso   1.000  C  0.036940
  C46      1.0000 0.93740  0.28620  0.54130  Biso   1.000  C  0.037666
  O15      1.0000 0.45730  0.47950  0.69860  Biso   1.000  O  -0.532753
  C47      1.0000 0.64460  0.21260  0.54180  Biso   1.000  C  0.037461
  O16      1.0000 0.17160  0.00260  0.29692  Biso   1.000  O  -0.519569
  C48      1.0000 0.71590  0.18680  0.45780  Biso   1.000  C  0.036676
  C49      1.0000 0.90370  0.25360  0.49950  Biso   1.000  C  0.012581
  C50      1.0000 0.61580  0.36820  0.30920  Biso   1.000  C  0.606104
  C51      1.0000 0.75400  0.21760  0.50100  Biso   1.000  C  -0.005210
  C52      1.0000 0.28610  0.47960  0.68340  Biso   1.000  C  0.603068
  C53      1.0000 0.49200  0.17490  0.53900  Biso   1.000  C  0.036684
  C54      1.0000 0.05130  0.11210  0.69880  Biso   1.000  C  0.604398
  C55      1.0000 0.16880  0.13280  0.66040  Biso   1.000  C  -0.030650
  C56      1.0000 0.98000  0.22720  0.41770  Biso   1.000  C  -0.130721
  H23      1.0000 0.05980  0.22970  0.39240  Biso   1.000  H  0.106298
  C57      1.0000 0.67240  0.24370  0.58360  Biso   1.000  C  -0.096458
  H24      1.0000 0.59640  0.23990  0.60950  Biso   1.000  H  0.106298
  C58      1.0000 0.55700  0.15080  0.46180  Biso   1.000  C  0.031957
  C59      1.0000 0.81750  0.18940  0.41680  Biso   1.000  C  -0.135845
  H25      1.0000 0.78600  0.16880  0.39040  Biso   1.000  H  0.106307
  C60      1.0000 0.19550  0.32480  0.37570  Biso   1.000  C  -0.132115
  H26      1.0000 0.06260  0.32570  0.37250  Biso   1.000  H  0.106307
  C61      1.0000 0.13840  0.36090  0.57960  Biso   1.000  C  0.062448
  C62      1.0000 0.37800  0.16350  0.58250  Biso   1.000  C  0.062015
  C63      1.0000 0.40870  0.04280  0.34640  Biso   1.000  C  -0.031759
  C64      1.0000 0.08970  0.32220  0.53830  Biso   1.000  C  0.034604
  C65      1.0000 0.50530  0.11340  0.41920  Biso   1.000  C  0.060559
  C66      1.0000 0.04710  0.43110  0.63230  Biso   1.000  C  -0.123596
  H27      1.0000 0.95180  0.45240  0.64370  Biso   1.000  H  0.106682
  C67      1.0000 0.83370  0.28310  0.58290  Biso   1.000  C  -0.123679
  H28      1.0000 0.86350  0.30450  0.60890  Biso   1.000  H  0.106495
  C68      1.0000 0.22720  0.43730  0.64880  Biso   1.000  C  -0.030416
  C69      1.0000 0.30260  0.33950  0.33660  Biso   1.000  C  -0.125562
  H29      1.0000 0.24250  0.34760  0.30750  Biso   1.000  H  0.106614
  C70      1.0000 0.28110  0.30920  0.41820  Biso   1.000  C  0.063884
  C71      1.0000 0.44850  0.14670  0.49970  Biso   1.000  C  -0.157861
  H30      1.0000 0.34340  0.12430  0.49880  Biso   1.000  H  0.106307
  C72      1.0000 0.49580  0.34130  0.34300  Biso   1.000  C  -0.028804
  C73      1.0000 0.34620  0.00480  0.30960  Biso   1.000  C  0.607085
  C74      1.0000 0.20210  0.32620  0.50080  Biso   1.000  C  -0.151357
  H31      1.0000 0.30650  0.34880  0.50210  Biso   1.000  H  0.106536
  C75      1.0000 0.46830  0.14760  0.62720  Biso   1.000  C  -0.136187
  H32      1.0000 0.60110  0.14750  0.63070  Biso   1.000  H  0.106206
  C76      1.0000 0.36310  0.13290  0.66430  Biso   1.000  C  -0.123611
  H33      1.0000 0.42500  0.12280  0.69270  Biso   1.000  H  0.106305
  C77      1.0000 0.07760  0.14820  0.61770  Biso   1.000  C  -0.125562
  H34      1.0000 0.94460  0.14820  0.61490  Biso   1.000  H  0.106305
  C78      1.0000 0.36830  0.40470  0.63040  Biso   1.000  C  -0.123684
  H35      1.0000 0.49440  0.40830  0.64180  Biso   1.000  H  0.106638
  C79      1.0000 0.58010  0.32190  0.38570  Biso   1.000  C  -0.123674
  H36      1.0000 0.71260  0.31850  0.38810  Biso   1.000  H  0.106424
  C80      1.0000 0.16180  0.29670  0.46070  Biso   1.000  C  0.031158
  C81      1.0000 0.32180  0.11120  0.40130  Biso   1.000  C  -0.123639
  H37      1.0000 0.23160  0.13420  0.41270  Biso   1.000  H  0.106298
  C82      1.0000 0.99900  0.39300  0.59830  Biso   1.000  C  -0.131990
  H38      1.0000 0.87180  0.38900  0.58790  Biso   1.000  H  0.106536
  C83      1.0000 0.64310  0.07990  0.40030  Biso   1.000  C  -0.136787
  H39      1.0000 0.76930  0.08170  0.41210  Biso   1.000  H  0.106305
  C84      1.0000 0.48080  0.30810  0.42300  Biso   1.000  C  -0.123639
  H40      1.0000 0.54290  0.29790  0.45130  Biso   1.000  H  0.106614
  C85      1.0000 0.17990  0.16350  0.57970  Biso   1.000  C  -0.125255
  H41      1.0000 0.11520  0.17390  0.55180  Biso   1.000  H  0.106614
  C86      1.0000 0.59350  0.04400  0.36400  Biso   1.000  C  -0.126044
  H42      1.0000 0.68470  0.02160  0.35230  Biso   1.000  H  0.106661
  C87      1.0000 0.32670  0.36860  0.59690  Biso   1.000  C  -0.123674
  H43      1.0000 0.42450  0.34850  0.58500  Biso   1.000  H  0.106307
  C88      1.0000 0.26680  0.07570  0.36660  Biso   1.000  C  -0.136797
  H44      1.0000 0.13890  0.07300  0.35630  Biso   1.000  H  0.106424
  Mn5      1.0000 0.79940  0.06932  0.75166  Biso   1.000  Mn  1.018544
  Mn6      1.0000 0.34631  0.46668  0.26467  Biso   1.000  Mn  1.069200
  O17      1.0000 0.12190  0.41590  0.23175  Biso   1.000  O  -0.600228
  O18      1.0000 0.53230  0.10172  0.77767  Biso   1.000  O  -0.598461
  O19      1.0000 0.46080  0.52743  0.79370  Biso   1.000  O  -0.600228
  O20      1.0000 0.87570  0.37850  0.19594  Biso   1.000  O  -0.529710
  O21      1.0000 0.79170  0.13560  0.81133  Biso   1.000  O  -0.546118
  O22      1.0000 0.16670  0.98501  0.19163  Biso   1.000  O  -0.502877
  C89      1.0000 0.00930  0.24070  0.95840  Biso   1.000  C  0.036940
  C90      1.0000 0.93740  0.21380  0.04130  Biso   1.000  C  0.037666
  O23      1.0000 0.45730  0.02050  0.19860  Biso   1.000  O  -0.532753
  C91      1.0000 0.64460  0.28740  0.04180  Biso   1.000  C  0.037461
  O24      1.0000 0.17160  0.49740  0.79692  Biso   1.000  O  -0.519569
  C92      1.0000 0.71590  0.31320  0.95780  Biso   1.000  C  0.036676
  C93      1.0000 0.90370  0.24640  0.99950  Biso   1.000  C  0.012581
  C94      1.0000 0.61580  0.13180  0.80920  Biso   1.000  C  0.606104
  C95      1.0000 0.75400  0.28240  0.00100  Biso   1.000  C  -0.005210
  C96      1.0000 0.28610  0.02040  0.18340  Biso   1.000  C  0.603068
  C97      1.0000 0.49200  0.32510  0.03900  Biso   1.000  C  0.036684
  C98      1.0000 0.05130  0.38790  0.19880  Biso   1.000  C  0.604398
  C99      1.0000 0.16880  0.36720  0.16040  Biso   1.000  C  -0.030650
  C100     1.0000 0.98000  0.27280  0.91770  Biso   1.000  C  -0.130721
  H45      1.0000 0.05980  0.27030  0.89240  Biso   1.000  H  0.106298
  C101     1.0000 0.67240  0.25630  0.08360  Biso   1.000  C  -0.096458
  H46      1.0000 0.59640  0.26010  0.10950  Biso   1.000  H  0.106298
  C102     1.0000 0.55700  0.34920  0.96180  Biso   1.000  C  0.031957
  C103     1.0000 0.81750  0.31060  0.91680  Biso   1.000  C  -0.135845
  H47      1.0000 0.78600  0.33120  0.89040  Biso   1.000  H  0.106307
  C104     1.0000 0.19550  0.17520  0.87570  Biso   1.000  C  -0.132115
  H48      1.0000 0.06260  0.17430  0.87250  Biso   1.000  H  0.106307
  C105     1.0000 0.13840  0.13910  0.07960  Biso   1.000  C  0.062448
  C106     1.0000 0.37800  0.33650  0.08250  Biso   1.000  C  0.062015
  C107     1.0000 0.40870  0.45720  0.84640  Biso   1.000  C  -0.031759
  C108     1.0000 0.08970  0.17780  0.03830  Biso   1.000  C  0.034604
  C109     1.0000 0.50530  0.38660  0.91920  Biso   1.000  C  0.060559
  C110     1.0000 0.04710  0.06890  0.13230  Biso   1.000  C  -0.123596
  H49      1.0000 0.95180  0.04760  0.14370  Biso   1.000  H  0.106682
  C111     1.0000 0.83370  0.21690  0.08290  Biso   1.000  C  -0.123679
  H50      1.0000 0.86350  0.19550  0.10890  Biso   1.000  H  0.106495
  C112     1.0000 0.22720  0.06270  0.14880  Biso   1.000  C  -0.030416
  C113     1.0000 0.30260  0.16050  0.83660  Biso   1.000  C  -0.125562
  H51      1.0000 0.24250  0.15240  0.80750  Biso   1.000  H  0.106614
  C114     1.0000 0.28110  0.19080  0.91820  Biso   1.000  C  0.063884
  C115     1.0000 0.44850  0.35330  0.99970  Biso   1.000  C  -0.157861
  H52      1.0000 0.34340  0.37570  0.99880  Biso   1.000  H  0.106307
  C116     1.0000 0.49580  0.15870  0.84300  Biso   1.000  C  -0.028804
  C117     1.0000 0.34620  0.49520  0.80960  Biso   1.000  C  0.607085
  C118     1.0000 0.20210  0.17380  0.00080  Biso   1.000  C  -0.151357
  H53      1.0000 0.30650  0.15120  0.00210  Biso   1.000  H  0.106536
  C119     1.0000 0.46830  0.35240  0.12720  Biso   1.000  C  -0.136187
  H54      1.0000 0.60110  0.35250  0.13070  Biso   1.000  H  0.106206
  C120     1.0000 0.36310  0.36710  0.16430  Biso   1.000  C  -0.123611
  H55      1.0000 0.42500  0.37720  0.19270  Biso   1.000  H  0.106305
  C121     1.0000 0.07760  0.35180  0.11770  Biso   1.000  C  -0.125562
  H56      1.0000 0.94460  0.35180  0.11490  Biso   1.000  H  0.106305
  C122     1.0000 0.36830  0.09530  0.13040  Biso   1.000  C  -0.123684
  H57      1.0000 0.49440  0.09170  0.14180  Biso   1.000  H  0.106638
  C123     1.0000 0.58010  0.17810  0.88570  Biso   1.000  C  -0.123674
  H58      1.0000 0.71260  0.18150  0.88810  Biso   1.000  H  0.106424
  C124     1.0000 0.16180  0.20330  0.96070  Biso   1.000  C  0.031158
  C125     1.0000 0.32180  0.38880  0.90130  Biso   1.000  C  -0.123639
  H59      1.0000 0.23160  0.36580  0.91270  Biso   1.000  H  0.106298
  C126     1.0000 0.99900  0.10700  0.09830  Biso   1.000  C  -0.131990
  H60      1.0000 0.87180  0.11100  0.08790  Biso   1.000  H  0.106536
  C127     1.0000 0.64310  0.42010  0.90030  Biso   1.000  C  -0.136787
  H61      1.0000 0.76930  0.41830  0.91210  Biso   1.000  H  0.106305
  C128     1.0000 0.48080  0.19190  0.92300  Biso   1.000  C  -0.123639
  H62      1.0000 0.54290  0.20210  0.95130  Biso   1.000  H  0.106614
  C129     1.0000 0.17990  0.33650  0.07970  Biso   1.000  C  -0.125255
  H63      1.0000 0.11520  0.32610  0.05180  Biso   1.000  H  0.106614
  C130     1.0000 0.59350  0.45600  0.86400  Biso   1.000  C  -0.126044
  H64      1.0000 0.68470  0.47840  0.85230  Biso   1.000  H  0.106661
  C131     1.0000 0.32670  0.13140  0.09690  Biso   1.000  C  -0.123674
  H65      1.0000 0.42450  0.15150  0.08500  Biso   1.000  H  0.106307
  C132     1.0000 0.26680  0.42430  0.86660  Biso   1.000  C  -0.136797
  H66      1.0000 0.13890  0.42700  0.85630  Biso   1.000  H  0.106424
  Mn7      1.0000 0.20060  0.56932  0.74834  Biso   1.000  Mn  1.018544
  Mn8      1.0000 0.65369  0.96668  0.23533  Biso   1.000  Mn  1.069200
  O25      1.0000 0.87810  0.91590  0.26825  Biso   1.000  O  -0.600228
  O26      1.0000 0.46770  0.60172  0.72233  Biso   1.000  O  -0.598461
  O27      1.0000 0.53920  0.02743  0.70630  Biso   1.000  O  -0.600228
  O28      1.0000 0.12430  0.87850  0.30406  Biso   1.000  O  -0.529710
  O29      1.0000 0.20830  0.63560  0.68867  Biso   1.000  O  -0.546118
  O30      1.0000 0.83330  0.48501  0.30837  Biso   1.000  O  -0.502877
  C133     1.0000 0.99070  0.74070  0.54160  Biso   1.000  C  0.036940
  C134     1.0000 0.06260  0.71380  0.45870  Biso   1.000  C  0.037666
  O31      1.0000 0.54270  0.52050  0.30140  Biso   1.000  O  -0.532753
  C135     1.0000 0.35540  0.78740  0.45820  Biso   1.000  C  0.037461
  O32      1.0000 0.82840  0.99740  0.70308  Biso   1.000  O  -0.519569
  C136     1.0000 0.28410  0.81320  0.54220  Biso   1.000  C  0.036676
  C137     1.0000 0.09630  0.74640  0.50050  Biso   1.000  C  0.012581
  C138     1.0000 0.38420  0.63180  0.69080  Biso   1.000  C  0.606104
  C139     1.0000 0.24600  0.78240  0.49900  Biso   1.000  C  -0.005210
  C140     1.0000 0.71390  0.52040  0.31660  Biso   1.000  C  0.603068
  C141     1.0000 0.50800  0.82510  0.46100  Biso   1.000  C  0.036684
  C142     1.0000 0.94870  0.88790  0.30120  Biso   1.000  C  0.604398
  C143     1.0000 0.83120  0.86720  0.33960  Biso   1.000  C  -0.030650
  C144     1.0000 0.02000  0.77280  0.58230  Biso   1.000  C  -0.130721
  H67      1.0000 0.94020  0.77030  0.60760  Biso   1.000  H  0.106298
  C145     1.0000 0.32760  0.75630  0.41640  Biso   1.000  C  -0.096458
  H68      1.0000 0.40360  0.76010  0.39050  Biso   1.000  H  0.106298
  C146     1.0000 0.44300  0.84920  0.53820  Biso   1.000  C  0.031957
  C147     1.0000 0.18250  0.81060  0.58320  Biso   1.000  C  -0.135845
  H69      1.0000 0.21400  0.83120  0.60960  Biso   1.000  H  0.106307
  C148     1.0000 0.80450  0.67520  0.62430  Biso   1.000  C  -0.132115
  H70      1.0000 0.93740  0.67430  0.62750  Biso   1.000  H  0.106307
  C149     1.0000 0.86160  0.63910  0.42040  Biso   1.000  C  0.062448
  C150     1.0000 0.62200  0.83650  0.41750  Biso   1.000  C  0.062015
  C151     1.0000 0.59130  0.95720  0.65360  Biso   1.000  C  -0.031759
  C152     1.0000 0.91030  0.67780  0.46170  Biso   1.000  C  0.034604
  C153     1.0000 0.49470  0.88660  0.58080  Biso   1.000  C  0.060559
  C154     1.0000 0.95290  0.56890  0.36770  Biso   1.000  C  -0.123596
  H71      1.0000 0.04820  0.54760  0.35630  Biso   1.000  H  0.106682
  C155     1.0000 0.16630  0.71690  0.41710  Biso   1.000  C  -0.123679
  H72      1.0000 0.13650  0.69550  0.39110  Biso   1.000  H  0.106495
  C156     1.0000 0.77280  0.56270  0.35120  Biso   1.000  C  -0.030416
  C157     1.0000 0.69740  0.66050  0.66340  Biso   1.000  C  -0.125562
  H73      1.0000 0.75750  0.65240  0.69250  Biso   1.000  H  0.106614
  C158     1.0000 0.71890  0.69080  0.58180  Biso   1.000  C  0.063884
  C159     1.0000 0.55150  0.85330  0.50030  Biso   1.000  C  -0.157861
  H74      1.0000 0.65660  0.87570  0.50120  Biso   1.000  H  0.106307
  C160     1.0000 0.50420  0.65870  0.65700  Biso   1.000  C  -0.028804
  C161     1.0000 0.65380  0.99520  0.69040  Biso   1.000  C  0.607085
  C162     1.0000 0.79790  0.67380  0.49920  Biso   1.000  C  -0.151357
  H75      1.0000 0.69350  0.65120  0.49790  Biso   1.000  H  0.106536
  C163     1.0000 0.53170  0.85240  0.37280  Biso   1.000  C  -0.136187
  H76      1.0000 0.39890  0.85250  0.36930  Biso   1.000  H  0.106206
  C164     1.0000 0.63690  0.86710  0.33570  Biso   1.000  C  -0.123611
  H77      1.0000 0.57500  0.87720  0.30730  Biso   1.000  H  0.106305
  C165     1.0000 0.92240  0.85180  0.38230  Biso   1.000  C  -0.125562
  H78      1.0000 0.05540  0.85180  0.38510  Biso   1.000  H  0.106305
  C166     1.0000 0.63170  0.59530  0.36960  Biso   1.000  C  -0.123684
  H79      1.0000 0.50560  0.59170  0.35820  Biso   1.000  H  0.106638
  C167     1.0000 0.41990  0.67810  0.61430  Biso   1.000  C  -0.123674
  H80      1.0000 0.28740  0.68150  0.61190  Biso   1.000  H  0.106424
  C168     1.0000 0.83820  0.70330  0.53930  Biso   1.000  C  0.031158
  C169     1.0000 0.67820  0.88880  0.59870  Biso   1.000  C  -0.123639
  H81      1.0000 0.76840  0.86580  0.58730  Biso   1.000  H  0.106298
  C170     1.0000 0.00100  0.60700  0.40170  Biso   1.000  C  -0.131990
  H82      1.0000 0.12820  0.61100  0.41210  Biso   1.000  H  0.106536
  C171     1.0000 0.35690  0.92010  0.59970  Biso   1.000  C  -0.136787
  H83      1.0000 0.23070  0.91830  0.58790  Biso   1.000  H  0.106305
  C172     1.0000 0.51920  0.69190  0.57700  Biso   1.000  C  -0.123639
  H84      1.0000 0.45710  0.70210  0.54870  Biso   1.000  H  0.106614
  C173     1.0000 0.82010  0.83650  0.42030  Biso   1.000  C  -0.125255
  H85      1.0000 0.88480  0.82610  0.44820  Biso   1.000  H  0.106614
  C174     1.0000 0.40650  0.95600  0.63600  Biso   1.000  C  -0.126044
  H86      1.0000 0.31530  0.97840  0.64770  Biso   1.000  H  0.106661
  C175     1.0000 0.67330  0.63140  0.40310  Biso   1.000  C  -0.123674
  H87      1.0000 0.57550  0.65150  0.41500  Biso   1.000  H  0.106307
  C176     1.0000 0.73320  0.92430  0.63340  Biso   1.000  C  -0.136797
  H88      1.0000 0.86110  0.92700  0.64370  Biso   1.000  H  0.106424
