data_image0
_cell_length_a       11.7603
_cell_length_b       18.7107
_cell_length_c       18.7107
_cell_angle_alpha    90
_cell_angle_beta     90
_cell_angle_gamma    90

_symmetry_space_group_name_H-M    "P 1"
_symmetry_int_tables_number       1

loop_
  _symmetry_equiv_pos_as_xyz
  'x, y, z'

loop_
  _atom_site_label
  _atom_site_occupancy
  _atom_site_fract_x
  _atom_site_fract_y
  _atom_site_fract_z
  _atom_site_thermal_displace_type
  _atom_site_B_iso_or_equiv
  _atom_site_type_symbol
  _atom_site_charge
  Zn1      1.0000 0.64386  0.28571  0.78162  Biso   1.000  Zn  0.973212
  Zn2      1.0000 0.64386  0.71429  0.21838  Biso   1.000  Zn  0.973212
  Zn3      1.0000 0.14386  0.21838  0.28571  Biso   1.000  Zn  0.973212
  Zn4      1.0000 0.14386  0.78162  0.71429  Biso   1.000  Zn  0.973212
  Zn5      1.0000 0.64386  0.78571  0.71838  Biso   1.000  Zn  0.973212
  Zn6      1.0000 0.64386  0.21429  0.28162  Biso   1.000  Zn  0.973212
  Zn7      1.0000 0.14386  0.71838  0.21429  Biso   1.000  Zn  0.973212
  Zn8      1.0000 0.14386  0.28162  0.78571  Biso   1.000  Zn  0.973212
  Co1      1.0000 0.81794  0.15389  0.82168  Biso   1.000  Co  1.018851
  Co2      1.0000 0.81794  0.84611  0.17832  Biso   1.000  Co  1.018851
  Co3      1.0000 0.31794  0.17832  0.15389  Biso   1.000  Co  1.018851
  Co4      1.0000 0.31794  0.82168  0.84611  Biso   1.000  Co  1.018851
  Co5      1.0000 0.81794  0.65389  0.67832  Biso   1.000  Co  1.018851
  Co6      1.0000 0.81794  0.34611  0.32168  Biso   1.000  Co  1.018851
  Co7      1.0000 0.31794  0.67832  0.34611  Biso   1.000  Co  1.018851
  Co8      1.0000 0.31794  0.32168  0.65389  Biso   1.000  Co  1.018851
  H1       1.0000 0.08980  0.27170  0.50870  Biso   1.000  H  0.126771
  H2       1.0000 0.70980  0.22100  0.55670  Biso   1.000  H  0.126883
  H3       1.0000 0.08980  0.72830  0.49130  Biso   1.000  H  0.126771
  H4       1.0000 0.70980  0.77900  0.44330  Biso   1.000  H  0.126883
  H5       1.0000 0.58980  0.49130  0.27170  Biso   1.000  H  0.126771
  H6       1.0000 0.20980  0.44330  0.22100  Biso   1.000  H  0.126883
  H7       1.0000 0.58980  0.50870  0.72830  Biso   1.000  H  0.126771
  H8       1.0000 0.20980  0.55670  0.77900  Biso   1.000  H  0.126883
  H9       1.0000 0.08980  0.77170  0.99130  Biso   1.000  H  0.126771
  H10      1.0000 0.70980  0.72100  0.94330  Biso   1.000  H  0.126883
  H11      1.0000 0.08980  0.22830  0.00870  Biso   1.000  H  0.126771
  H12      1.0000 0.70980  0.27900  0.05670  Biso   1.000  H  0.126883
  H13      1.0000 0.58980  0.99130  0.22830  Biso   1.000  H  0.126771
  H14      1.0000 0.20980  0.94330  0.27900  Biso   1.000  H  0.126883
  H15      1.0000 0.58980  0.00870  0.77170  Biso   1.000  H  0.126771
  H16      1.0000 0.20980  0.05670  0.72100  Biso   1.000  H  0.126883
  C1       1.0000 0.81010  0.24090  0.67830  Biso   1.000  C  0.614532
  C2       1.0000 0.85940  0.24580  0.60470  Biso   1.000  C  -0.037940
  C3       1.0000 0.97150  0.26200  0.58870  Biso   1.000  C  -0.035827
  C4       1.0000 0.01190  0.26210  0.51800  Biso   1.000  C  -0.136744
  C5       1.0000 0.93900  0.24820  0.46240  Biso   1.000  C  -0.040364
  C6       1.0000 0.82290  0.23320  0.47550  Biso   1.000  C  -0.043966
  C7       1.0000 0.78710  0.23190  0.54700  Biso   1.000  C  -0.139741
  C8       1.0000 0.05770  0.28210  0.64480  Biso   1.000  C  0.616545
  C9       1.0000 0.99250  0.25180  0.38940  Biso   1.000  C  0.597144
  C10      1.0000 0.73330  0.22080  0.41990  Biso   1.000  C  0.609073
  C11      1.0000 0.81010  0.75910  0.32170  Biso   1.000  C  0.614532
  C12      1.0000 0.85940  0.75420  0.39530  Biso   1.000  C  -0.037940
  C13      1.0000 0.97150  0.73800  0.41130  Biso   1.000  C  -0.035827
  C14      1.0000 0.01190  0.73790  0.48200  Biso   1.000  C  -0.136744
  C15      1.0000 0.93900  0.75180  0.53760  Biso   1.000  C  -0.040364
  C16      1.0000 0.82290  0.76680  0.52450  Biso   1.000  C  -0.043966
  C17      1.0000 0.78710  0.76810  0.45300  Biso   1.000  C  -0.139741
  C18      1.0000 0.05770  0.71790  0.35520  Biso   1.000  C  0.616545
  C19      1.0000 0.99250  0.74820  0.61060  Biso   1.000  C  0.597144
  C20      1.0000 0.73330  0.77920  0.58010  Biso   1.000  C  0.609073
  C21      1.0000 0.31010  0.32170  0.24090  Biso   1.000  C  0.614532
  C22      1.0000 0.35940  0.39530  0.24580  Biso   1.000  C  -0.037940
  C23      1.0000 0.47150  0.41130  0.26200  Biso   1.000  C  -0.035827
  C24      1.0000 0.51190  0.48200  0.26210  Biso   1.000  C  -0.136744
  C25      1.0000 0.43900  0.53760  0.24820  Biso   1.000  C  -0.040364
  C26      1.0000 0.32290  0.52450  0.23320  Biso   1.000  C  -0.043966
  C27      1.0000 0.28710  0.45300  0.23190  Biso   1.000  C  -0.139741
  C28      1.0000 0.55770  0.35520  0.28210  Biso   1.000  C  0.616545
  C29      1.0000 0.49250  0.61060  0.25180  Biso   1.000  C  0.597144
  C30      1.0000 0.23330  0.58010  0.22080  Biso   1.000  C  0.609073
  C31      1.0000 0.31010  0.67830  0.75910  Biso   1.000  C  0.614532
  C32      1.0000 0.35940  0.60470  0.75420  Biso   1.000  C  -0.037940
  C33      1.0000 0.47150  0.58870  0.73800  Biso   1.000  C  -0.035827
  C34      1.0000 0.51190  0.51800  0.73790  Biso   1.000  C  -0.136744
  C35      1.0000 0.43900  0.46240  0.75180  Biso   1.000  C  -0.040364
  C36      1.0000 0.32290  0.47550  0.76680  Biso   1.000  C  -0.043966
  C37      1.0000 0.28710  0.54700  0.76810  Biso   1.000  C  -0.139741
  C38      1.0000 0.55770  0.64480  0.71790  Biso   1.000  C  0.616545
  C39      1.0000 0.49250  0.38940  0.74820  Biso   1.000  C  0.597144
  C40      1.0000 0.23330  0.41990  0.77920  Biso   1.000  C  0.609073
  C41      1.0000 0.81010  0.74090  0.82170  Biso   1.000  C  0.614532
  C42      1.0000 0.85940  0.74580  0.89530  Biso   1.000  C  -0.037940
  C43      1.0000 0.97150  0.76200  0.91130  Biso   1.000  C  -0.035827
  C44      1.0000 0.01190  0.76210  0.98200  Biso   1.000  C  -0.136744
  C45      1.0000 0.93900  0.74820  0.03760  Biso   1.000  C  -0.040364
  C46      1.0000 0.82290  0.73320  0.02450  Biso   1.000  C  -0.043966
  C47      1.0000 0.78710  0.73190  0.95300  Biso   1.000  C  -0.139741
  C48      1.0000 0.05770  0.78210  0.85520  Biso   1.000  C  0.616545
  C49      1.0000 0.99250  0.75180  0.11060  Biso   1.000  C  0.597144
  C50      1.0000 0.73330  0.72080  0.08010  Biso   1.000  C  0.609073
  C51      1.0000 0.81010  0.25910  0.17830  Biso   1.000  C  0.614532
  C52      1.0000 0.85940  0.25420  0.10470  Biso   1.000  C  -0.037940
  C53      1.0000 0.97150  0.23800  0.08870  Biso   1.000  C  -0.035827
  C54      1.0000 0.01190  0.23790  0.01800  Biso   1.000  C  -0.136744
  C55      1.0000 0.93900  0.25180  0.96240  Biso   1.000  C  -0.040364
  C56      1.0000 0.82290  0.26680  0.97550  Biso   1.000  C  -0.043966
  C57      1.0000 0.78710  0.26810  0.04700  Biso   1.000  C  -0.139741
  C58      1.0000 0.05770  0.21790  0.14480  Biso   1.000  C  0.616545
  C59      1.0000 0.99250  0.24820  0.88940  Biso   1.000  C  0.597144
  C60      1.0000 0.73330  0.27920  0.91990  Biso   1.000  C  0.609073
  C61      1.0000 0.31010  0.82170  0.25910  Biso   1.000  C  0.614532
  C62      1.0000 0.35940  0.89530  0.25420  Biso   1.000  C  -0.037940
  C63      1.0000 0.47150  0.91130  0.23800  Biso   1.000  C  -0.035827
  C64      1.0000 0.51190  0.98200  0.23790  Biso   1.000  C  -0.136744
  C65      1.0000 0.43900  0.03760  0.25180  Biso   1.000  C  -0.040364
  C66      1.0000 0.32290  0.02450  0.26680  Biso   1.000  C  -0.043966
  C67      1.0000 0.28710  0.95300  0.26810  Biso   1.000  C  -0.139741
  C68      1.0000 0.55770  0.85520  0.21790  Biso   1.000  C  0.616545
  C69      1.0000 0.49250  0.11060  0.24820  Biso   1.000  C  0.597144
  C70      1.0000 0.23330  0.08010  0.27920  Biso   1.000  C  0.609073
  C71      1.0000 0.31010  0.17830  0.74090  Biso   1.000  C  0.614532
  C72      1.0000 0.35940  0.10470  0.74580  Biso   1.000  C  -0.037940
  C73      1.0000 0.47150  0.08870  0.76200  Biso   1.000  C  -0.035827
  C74      1.0000 0.51190  0.01800  0.76210  Biso   1.000  C  -0.136744
  C75      1.0000 0.43900  0.96240  0.74820  Biso   1.000  C  -0.040364
  C76      1.0000 0.32290  0.97550  0.73320  Biso   1.000  C  -0.043966
  C77      1.0000 0.28710  0.04700  0.73190  Biso   1.000  C  -0.139741
  C78      1.0000 0.55770  0.14480  0.78210  Biso   1.000  C  0.616545
  C79      1.0000 0.49250  0.88940  0.75180  Biso   1.000  C  0.597144
  C80      1.0000 0.23330  0.91990  0.72080  Biso   1.000  C  0.609073
  O1       1.0000 0.82680  0.18710  0.71490  Biso   1.000  O  -0.537095
  O2       1.0000 0.74040  0.29200  0.69520  Biso   1.000  O  -0.537112
  O3       1.0000 0.03120  0.27740  0.70900  Biso   1.000  O  -0.542025
  O4       1.0000 0.15310  0.30530  0.62260  Biso   1.000  O  -0.536838
  O5       1.0000 0.07300  0.20750  0.37950  Biso   1.000  O  -0.536141
  O6       1.0000 0.97130  0.30210  0.34540  Biso   1.000  O  -0.536570
  O7       1.0000 0.75980  0.23740  0.35440  Biso   1.000  O  -0.560137
  O8       1.0000 0.63880  0.19960  0.43540  Biso   1.000  O  -0.462511
  O9       1.0000 0.82680  0.81290  0.28510  Biso   1.000  O  -0.537095
  O10      1.0000 0.74040  0.70800  0.30480  Biso   1.000  O  -0.537112
  O11      1.0000 0.03120  0.72260  0.29100  Biso   1.000  O  -0.542025
  O12      1.0000 0.15310  0.69470  0.37740  Biso   1.000  O  -0.536838
  O13      1.0000 0.07300  0.79250  0.62050  Biso   1.000  O  -0.536141
  O14      1.0000 0.97130  0.69790  0.65460  Biso   1.000  O  -0.536570
  O15      1.0000 0.75980  0.76260  0.64560  Biso   1.000  O  -0.560137
  O16      1.0000 0.63880  0.80040  0.56460  Biso   1.000  O  -0.462511
  O17      1.0000 0.32680  0.28510  0.18710  Biso   1.000  O  -0.537095
  O18      1.0000 0.24040  0.30480  0.29200  Biso   1.000  O  -0.537112
  O19      1.0000 0.53120  0.29100  0.27740  Biso   1.000  O  -0.542025
  O20      1.0000 0.65310  0.37740  0.30530  Biso   1.000  O  -0.536838
  O21      1.0000 0.57300  0.62050  0.20750  Biso   1.000  O  -0.536141
  O22      1.0000 0.47130  0.65460  0.30210  Biso   1.000  O  -0.536570
  O23      1.0000 0.25980  0.64560  0.23740  Biso   1.000  O  -0.560137
  O24      1.0000 0.13880  0.56460  0.19960  Biso   1.000  O  -0.462511
  O25      1.0000 0.32680  0.71490  0.81290  Biso   1.000  O  -0.537095
  O26      1.0000 0.24040  0.69520  0.70800  Biso   1.000  O  -0.537112
  O27      1.0000 0.53120  0.70900  0.72260  Biso   1.000  O  -0.542025
  O28      1.0000 0.65310  0.62260  0.69470  Biso   1.000  O  -0.536838
  O29      1.0000 0.57300  0.37950  0.79250  Biso   1.000  O  -0.536141
  O30      1.0000 0.47130  0.34540  0.69790  Biso   1.000  O  -0.536570
  O31      1.0000 0.25980  0.35440  0.76260  Biso   1.000  O  -0.560137
  O32      1.0000 0.13880  0.43540  0.80040  Biso   1.000  O  -0.462511
  O33      1.0000 0.82680  0.68710  0.78510  Biso   1.000  O  -0.537095
  O34      1.0000 0.74040  0.79200  0.80480  Biso   1.000  O  -0.537112
  O35      1.0000 0.03120  0.77740  0.79100  Biso   1.000  O  -0.542025
  O36      1.0000 0.15310  0.80530  0.87740  Biso   1.000  O  -0.536838
  O37      1.0000 0.07300  0.70750  0.12050  Biso   1.000  O  -0.536141
  O38      1.0000 0.97130  0.80210  0.15460  Biso   1.000  O  -0.536570
  O39      1.0000 0.75980  0.73740  0.14560  Biso   1.000  O  -0.560137
  O40      1.0000 0.63880  0.69960  0.06460  Biso   1.000  O  -0.462511
  O41      1.0000 0.82680  0.31290  0.21490  Biso   1.000  O  -0.537095
  O42      1.0000 0.74040  0.20800  0.19520  Biso   1.000  O  -0.537112
  O43      1.0000 0.03120  0.22260  0.20900  Biso   1.000  O  -0.542025
  O44      1.0000 0.15310  0.19470  0.12260  Biso   1.000  O  -0.536838
  O45      1.0000 0.07300  0.29250  0.87950  Biso   1.000  O  -0.536141
  O46      1.0000 0.97130  0.19790  0.84540  Biso   1.000  O  -0.536570
  O47      1.0000 0.75980  0.26260  0.85440  Biso   1.000  O  -0.560137
  O48      1.0000 0.63880  0.30040  0.93540  Biso   1.000  O  -0.462511
  O49      1.0000 0.32680  0.78510  0.31290  Biso   1.000  O  -0.537095
  O50      1.0000 0.24040  0.80480  0.20800  Biso   1.000  O  -0.537112
  O51      1.0000 0.53120  0.79100  0.22260  Biso   1.000  O  -0.542025
  O52      1.0000 0.65310  0.87740  0.19470  Biso   1.000  O  -0.536838
  O53      1.0000 0.57300  0.12050  0.29250  Biso   1.000  O  -0.536141
  O54      1.0000 0.47130  0.15460  0.19790  Biso   1.000  O  -0.536570
  O55      1.0000 0.25980  0.14560  0.26260  Biso   1.000  O  -0.560137
  O56      1.0000 0.13880  0.06460  0.30040  Biso   1.000  O  -0.462511
  O57      1.0000 0.32680  0.21490  0.68710  Biso   1.000  O  -0.537095
  O58      1.0000 0.24040  0.19520  0.79200  Biso   1.000  O  -0.537112
  O59      1.0000 0.53120  0.20900  0.77740  Biso   1.000  O  -0.542025
  O60      1.0000 0.65310  0.12260  0.80530  Biso   1.000  O  -0.536838
  O61      1.0000 0.57300  0.87950  0.70750  Biso   1.000  O  -0.536141
  O62      1.0000 0.47130  0.84540  0.80210  Biso   1.000  O  -0.536570
  O63      1.0000 0.25980  0.85440  0.73740  Biso   1.000  O  -0.560137
  O64      1.0000 0.13880  0.93540  0.69960  Biso   1.000  O  -0.462511
