data_image0
_cell_length_a       25.481
_cell_length_b       22.483
_cell_length_c       17.233
_cell_angle_alpha    90
_cell_angle_beta     92.696
_cell_angle_gamma    90

_symmetry_space_group_name_H-M    "P 1"
_symmetry_int_tables_number       1

loop_
  _symmetry_equiv_pos_as_xyz
  'x, y, z'

loop_
  _atom_site_label
  _atom_site_occupancy
  _atom_site_fract_x
  _atom_site_fract_y
  _atom_site_fract_z
  _atom_site_thermal_displace_type
  _atom_site_B_iso_or_equiv
  _atom_site_type_symbol
  _atom_site_charge
  Zn1      1.0000 0.13300  0.07000  0.30800  Biso   1.000  Zn  0.984839
  O1       1.0000 0.71000  0.59000  0.19000  Biso   1.000  O  -0.539409
  O2       1.0000 0.69000  0.63000  0.30000  Biso   1.000  O  -0.539536
  O3       1.0000 0.06000  0.89000  0.30000  Biso   1.000  O  -0.539204
  O4       1.0000 0.03000  0.93000  0.19000  Biso   1.000  O  -0.538570
  O5       1.0000 0.13000  0.95000  0.42000  Biso   1.000  O  -0.538570
  C1       1.0000 0.72000  0.63000  0.24000  Biso   1.000  C  0.642161
  C2       1.0000 0.76000  0.67000  0.24000  Biso   1.000  C  -0.007538
  C3       1.0000 0.76000  0.71000  0.30000  Biso   1.000  C  -0.136991
  H1       1.0000 0.73980  0.71650  0.33980  Biso   1.000  H  0.125548
  C4       1.0000 0.81000  0.75000  0.30000  Biso   1.000  C  0.055330
  C5       1.0000 0.84000  0.75000  0.25000  Biso   1.000  C  0.030529
  C6       1.0000 0.84000  0.70000  0.19000  Biso   1.000  C  0.054251
  C7       1.0000 0.80000  0.67000  0.19000  Biso   1.000  C  -0.131987
  H2       1.0000 0.79090  0.63670  0.14640  Biso   1.000  H  0.125410
  C8       1.0000 0.89000  0.79000  0.25000  Biso   1.000  C  0.080790
  C9       1.0000 0.90000  0.82000  0.18000  Biso   1.000  C  -0.116643
  H3       1.0000 0.88020  0.81580  0.13420  Biso   1.000  H  0.124652
  C10      1.0000 0.95000  0.85000  0.18000  Biso   1.000  C  -0.114515
  H4       1.0000 0.95490  0.87620  0.13430  Biso   1.000  H  0.113653
  C11      1.0000 0.98000  0.86000  0.25000  Biso   1.000  C  -0.004940
  C12      1.0000 0.97000  0.83000  0.31000  Biso   1.000  C  -0.105760
  H5       1.0000 0.99230  0.82790  0.35660  Biso   1.000  H  0.124107
  C13      1.0000 0.93000  0.79000  0.31000  Biso   1.000  C  -0.121184
  H6       1.0000 0.91750  0.76740  0.35650  Biso   1.000  H  0.121235
  C14      1.0000 0.03000  0.89000  0.24000  Biso   1.000  C  0.640901
  C15      1.0000 0.09300  0.02000  0.90000  Biso   1.000  C  -0.130019
  H7       1.0000 0.06250  0.03480  0.92420  Biso   1.000  H  0.122666
  C16      1.0000 0.09600  0.02000  0.82000  Biso   1.000  C  -0.165463
  H8       1.0000 0.06750  0.03480  0.78900  Biso   1.000  H  0.123484
  C17      1.0000 0.18000  0.98000  0.83000  Biso   1.000  C  -0.032565
  C18      1.0000 0.18000  0.98000  0.91000  Biso   1.000  C  -0.134973
  H9       1.0000 0.20920  0.96520  0.94630  Biso   1.000  H  0.119967
  C19      1.0000 0.14000  0.95000  0.66000  Biso   1.000  C  -0.110752
  H10      1.0000 0.13930  0.90900  0.68690  Biso   1.000  H  0.120747
  C20      1.0000 0.14000  0.95000  0.58000  Biso   1.000  C  -0.110169
  H11      1.0000 0.13970  0.91120  0.55030  Biso   1.000  H  0.121265
  C21      1.0000 0.22000  0.95000  0.79300  Biso   1.000  C  -0.126589
  H12      1.0000 0.22020  0.94880  0.73860  Biso   1.000  H  0.103088
  C22      1.0000 0.30790  0.82050  0.82750  Biso   1.000  C  0.116281
  C23      1.0000 0.34940  0.78980  0.79660  Biso   1.000  C  0.018073
  C24      1.0000 0.36950  0.73920  0.83370  Biso   1.000  C  -0.303930
  H13      1.0000 0.39780  0.71820  0.81250  Biso   1.000  H  0.124369
  C25      1.0000 0.34810  0.71940  0.90180  Biso   1.000  C  0.134052
  C26      1.0000 0.30660  0.75010  0.93280  Biso   1.000  C  -0.177190
  H14      1.0000 0.29200  0.73660  0.97930  Biso   1.000  H  0.124442
  C27      1.0000 0.28650  0.80070  0.89560  Biso   1.000  C  -0.177190
  H15      1.0000 0.25820  0.82170  0.91680  Biso   1.000  H  0.124369
  C28      1.0000 0.81240  0.80740  0.35550  Biso   1.000  C  0.030129
  C29      1.0000 0.38080  0.19040  0.12300  Biso   1.000  C  0.031300
  O6       1.0000 0.34930  0.65660  0.98490  Biso   1.000  O  -0.226302
  O7       1.0000 0.39990  0.64180  0.90830  Biso   1.000  O  -0.291929
  O8       1.0000 0.37500  0.87070  0.72400  Biso   1.000  O  -0.359696
  O9       1.0000 0.40180  0.78510  0.67770  Biso   1.000  O  -0.365721
  N1       1.0000 0.24870  0.90790  0.83210  Biso   1.000  N  -0.222123
  N2       1.0000 0.28150  0.87050  0.79680  Biso   1.000  N  -0.192272
  H16      1.0000 0.28710  0.87870  0.74800  Biso   1.000  H  0.279646
  N3       1.0000 0.36580  0.67260  0.93170  Biso   1.000  N  0.577495
  N4       1.0000 0.37480  0.81360  0.72610  Biso   1.000  N  0.486647
  Zn2      1.0000 0.63300  0.57000  0.30800  Biso   1.000  Zn  0.984839
  O10      1.0000 0.21000  0.09000  0.19000  Biso   1.000  O  -0.539409
  O11      1.0000 0.19000  0.13000  0.30000  Biso   1.000  O  -0.539536
  O12      1.0000 0.56000  0.39000  0.30000  Biso   1.000  O  -0.539204
  O13      1.0000 0.53000  0.43000  0.19000  Biso   1.000  O  -0.538570
  O14      1.0000 0.63000  0.45000  0.42000  Biso   1.000  O  -0.538570
  C30      1.0000 0.22000  0.13000  0.24000  Biso   1.000  C  0.642161
  C31      1.0000 0.26000  0.17000  0.24000  Biso   1.000  C  -0.007538
  C32      1.0000 0.26000  0.21000  0.30000  Biso   1.000  C  -0.136991
  H17      1.0000 0.23980  0.21650  0.33980  Biso   1.000  H  0.125548
  C33      1.0000 0.31000  0.25000  0.30000  Biso   1.000  C  0.055330
  C34      1.0000 0.34000  0.25000  0.25000  Biso   1.000  C  0.030529
  C35      1.0000 0.34000  0.20000  0.19000  Biso   1.000  C  0.054251
  C36      1.0000 0.30000  0.17000  0.19000  Biso   1.000  C  -0.131987
  H18      1.0000 0.29090  0.13670  0.14640  Biso   1.000  H  0.125410
  C37      1.0000 0.39000  0.29000  0.25000  Biso   1.000  C  0.080790
  C38      1.0000 0.40000  0.32000  0.18000  Biso   1.000  C  -0.116643
  H19      1.0000 0.38020  0.31580  0.13420  Biso   1.000  H  0.124652
  C39      1.0000 0.45000  0.35000  0.18000  Biso   1.000  C  -0.114515
  H20      1.0000 0.45490  0.37620  0.13430  Biso   1.000  H  0.113653
  C40      1.0000 0.48000  0.36000  0.25000  Biso   1.000  C  -0.004940
  C41      1.0000 0.47000  0.33000  0.31000  Biso   1.000  C  -0.105760
  H21      1.0000 0.49230  0.32790  0.35660  Biso   1.000  H  0.124107
  C42      1.0000 0.43000  0.29000  0.31000  Biso   1.000  C  -0.121184
  H22      1.0000 0.41750  0.26740  0.35650  Biso   1.000  H  0.121235
  C43      1.0000 0.53000  0.39000  0.24000  Biso   1.000  C  0.640901
  C44      1.0000 0.59300  0.52000  0.90000  Biso   1.000  C  -0.130019
  H23      1.0000 0.56250  0.53480  0.92420  Biso   1.000  H  0.122666
  C45      1.0000 0.59600  0.52000  0.82000  Biso   1.000  C  -0.165463
  H24      1.0000 0.56750  0.53480  0.78900  Biso   1.000  H  0.123484
  C46      1.0000 0.68000  0.48000  0.83000  Biso   1.000  C  -0.032565
  C47      1.0000 0.68000  0.48000  0.91000  Biso   1.000  C  -0.134973
  H25      1.0000 0.70920  0.46520  0.94630  Biso   1.000  H  0.119967
  C48      1.0000 0.64000  0.45000  0.66000  Biso   1.000  C  -0.110752
  H26      1.0000 0.63930  0.40900  0.68690  Biso   1.000  H  0.120747
  C49      1.0000 0.64000  0.45000  0.58000  Biso   1.000  C  -0.110169
  H27      1.0000 0.63970  0.41120  0.55030  Biso   1.000  H  0.121265
  C50      1.0000 0.72000  0.45000  0.79300  Biso   1.000  C  -0.126589
  H28      1.0000 0.72020  0.44880  0.73860  Biso   1.000  H  0.103088
  C51      1.0000 0.80790  0.32050  0.82750  Biso   1.000  C  0.116281
  C52      1.0000 0.84940  0.28980  0.79660  Biso   1.000  C  0.018073
  C53      1.0000 0.86950  0.23920  0.83370  Biso   1.000  C  -0.303930
  H29      1.0000 0.89780  0.21820  0.81250  Biso   1.000  H  0.124369
  C54      1.0000 0.84810  0.21940  0.90180  Biso   1.000  C  0.134052
  C55      1.0000 0.80660  0.25010  0.93280  Biso   1.000  C  -0.177190
  H30      1.0000 0.79200  0.23660  0.97930  Biso   1.000  H  0.124442
  C56      1.0000 0.78650  0.30070  0.89560  Biso   1.000  C  -0.177190
  H31      1.0000 0.75820  0.32170  0.91680  Biso   1.000  H  0.124369
  C57      1.0000 0.31240  0.30740  0.35550  Biso   1.000  C  0.030129
  C58      1.0000 0.88080  0.69040  0.12300  Biso   1.000  C  0.031300
  O15      1.0000 0.84930  0.15660  0.98490  Biso   1.000  O  -0.226302
  O16      1.0000 0.89990  0.14180  0.90830  Biso   1.000  O  -0.291929
  O17      1.0000 0.87500  0.37070  0.72400  Biso   1.000  O  -0.359696
  O18      1.0000 0.90180  0.28510  0.67770  Biso   1.000  O  -0.365721
  N5       1.0000 0.74870  0.40790  0.83210  Biso   1.000  N  -0.222123
  N6       1.0000 0.78150  0.37050  0.79680  Biso   1.000  N  -0.192272
  H32      1.0000 0.78710  0.37870  0.74800  Biso   1.000  H  0.279646
  N7       1.0000 0.86580  0.17260  0.93170  Biso   1.000  N  0.577495
  N8       1.0000 0.87480  0.31360  0.72610  Biso   1.000  N  0.486647
  Zn3      1.0000 0.13300  0.93000  0.30800  Biso   1.000  Zn  0.984839
  O19      1.0000 0.71000  0.41000  0.19000  Biso   1.000  O  -0.539409
  O20      1.0000 0.69000  0.37000  0.30000  Biso   1.000  O  -0.539536
  O21      1.0000 0.06000  0.11000  0.30000  Biso   1.000  O  -0.539204
  O22      1.0000 0.03000  0.07000  0.19000  Biso   1.000  O  -0.538570
  O23      1.0000 0.13000  0.05000  0.42000  Biso   1.000  O  -0.538570
  C59      1.0000 0.72000  0.37000  0.24000  Biso   1.000  C  0.642161
  C60      1.0000 0.76000  0.33000  0.24000  Biso   1.000  C  -0.007538
  C61      1.0000 0.76000  0.29000  0.30000  Biso   1.000  C  -0.136991
  H33      1.0000 0.73980  0.28350  0.33980  Biso   1.000  H  0.125548
  C62      1.0000 0.81000  0.25000  0.30000  Biso   1.000  C  0.055330
  C63      1.0000 0.84000  0.25000  0.25000  Biso   1.000  C  0.030529
  C64      1.0000 0.84000  0.30000  0.19000  Biso   1.000  C  0.054251
  C65      1.0000 0.80000  0.33000  0.19000  Biso   1.000  C  -0.131987
  H34      1.0000 0.79090  0.36330  0.14640  Biso   1.000  H  0.125410
  C66      1.0000 0.89000  0.21000  0.25000  Biso   1.000  C  0.080790
  C67      1.0000 0.90000  0.18000  0.18000  Biso   1.000  C  -0.116643
  H35      1.0000 0.88020  0.18420  0.13420  Biso   1.000  H  0.124652
  C68      1.0000 0.95000  0.15000  0.18000  Biso   1.000  C  -0.114515
  H36      1.0000 0.95490  0.12380  0.13430  Biso   1.000  H  0.113653
  C69      1.0000 0.98000  0.14000  0.25000  Biso   1.000  C  -0.004940
  C70      1.0000 0.97000  0.17000  0.31000  Biso   1.000  C  -0.105760
  H37      1.0000 0.99230  0.17210  0.35660  Biso   1.000  H  0.124107
  C71      1.0000 0.93000  0.21000  0.31000  Biso   1.000  C  -0.121184
  H38      1.0000 0.91750  0.23260  0.35650  Biso   1.000  H  0.121235
  C72      1.0000 0.03000  0.11000  0.24000  Biso   1.000  C  0.640901
  C73      1.0000 0.09300  0.98000  0.90000  Biso   1.000  C  -0.130019
  H39      1.0000 0.06250  0.96520  0.92420  Biso   1.000  H  0.122666
  C74      1.0000 0.09600  0.98000  0.82000  Biso   1.000  C  -0.165463
  H40      1.0000 0.06750  0.96520  0.78900  Biso   1.000  H  0.123484
  C75      1.0000 0.18000  0.02000  0.83000  Biso   1.000  C  -0.032565
  C76      1.0000 0.18000  0.02000  0.91000  Biso   1.000  C  -0.134973
  H41      1.0000 0.20920  0.03480  0.94630  Biso   1.000  H  0.119967
  C77      1.0000 0.14000  0.05000  0.66000  Biso   1.000  C  -0.110752
  H42      1.0000 0.13930  0.09100  0.68690  Biso   1.000  H  0.120747
  C78      1.0000 0.14000  0.05000  0.58000  Biso   1.000  C  -0.110169
  H43      1.0000 0.13970  0.08880  0.55030  Biso   1.000  H  0.121265
  C79      1.0000 0.22000  0.05000  0.79300  Biso   1.000  C  -0.126589
  H44      1.0000 0.22020  0.05120  0.73860  Biso   1.000  H  0.103088
  C80      1.0000 0.30790  0.17950  0.82750  Biso   1.000  C  0.116281
  C81      1.0000 0.34940  0.21020  0.79660  Biso   1.000  C  0.018073
  C82      1.0000 0.36950  0.26080  0.83370  Biso   1.000  C  -0.303930
  H45      1.0000 0.39780  0.28180  0.81250  Biso   1.000  H  0.124369
  C83      1.0000 0.34810  0.28060  0.90180  Biso   1.000  C  0.134052
  C84      1.0000 0.30660  0.24990  0.93280  Biso   1.000  C  -0.177190
  H46      1.0000 0.29200  0.26340  0.97930  Biso   1.000  H  0.124442
  C85      1.0000 0.28650  0.19930  0.89560  Biso   1.000  C  -0.177190
  H47      1.0000 0.25820  0.17830  0.91680  Biso   1.000  H  0.124369
  C86      1.0000 0.81240  0.19260  0.35550  Biso   1.000  C  0.030129
  C87      1.0000 0.38080  0.80960  0.12300  Biso   1.000  C  0.031300
  O24      1.0000 0.34930  0.34340  0.98490  Biso   1.000  O  -0.226302
  O25      1.0000 0.39990  0.35820  0.90830  Biso   1.000  O  -0.291929
  O26      1.0000 0.37500  0.12930  0.72400  Biso   1.000  O  -0.359696
  O27      1.0000 0.40180  0.21490  0.67770  Biso   1.000  O  -0.365721
  N9       1.0000 0.24870  0.09210  0.83210  Biso   1.000  N  -0.222123
  N10      1.0000 0.28150  0.12950  0.79680  Biso   1.000  N  -0.192272
  H48      1.0000 0.28710  0.12130  0.74800  Biso   1.000  H  0.279646
  N11      1.0000 0.36580  0.32740  0.93170  Biso   1.000  N  0.577495
  N12      1.0000 0.37480  0.18640  0.72610  Biso   1.000  N  0.486647
  Zn4      1.0000 0.63300  0.43000  0.30800  Biso   1.000  Zn  0.984839
  O28      1.0000 0.21000  0.91000  0.19000  Biso   1.000  O  -0.539409
  O29      1.0000 0.19000  0.87000  0.30000  Biso   1.000  O  -0.539536
  O30      1.0000 0.56000  0.61000  0.30000  Biso   1.000  O  -0.539204
  O31      1.0000 0.53000  0.57000  0.19000  Biso   1.000  O  -0.538570
  O32      1.0000 0.63000  0.55000  0.42000  Biso   1.000  O  -0.538570
  C88      1.0000 0.22000  0.87000  0.24000  Biso   1.000  C  0.642161
  C89      1.0000 0.26000  0.83000  0.24000  Biso   1.000  C  -0.007538
  C90      1.0000 0.26000  0.79000  0.30000  Biso   1.000  C  -0.136991
  H49      1.0000 0.23980  0.78350  0.33980  Biso   1.000  H  0.125548
  C91      1.0000 0.31000  0.75000  0.30000  Biso   1.000  C  0.055330
  C92      1.0000 0.34000  0.75000  0.25000  Biso   1.000  C  0.030529
  C93      1.0000 0.34000  0.80000  0.19000  Biso   1.000  C  0.054251
  C94      1.0000 0.30000  0.83000  0.19000  Biso   1.000  C  -0.131987
  H50      1.0000 0.29090  0.86330  0.14640  Biso   1.000  H  0.125410
  C95      1.0000 0.39000  0.71000  0.25000  Biso   1.000  C  0.080790
  C96      1.0000 0.40000  0.68000  0.18000  Biso   1.000  C  -0.116643
  H51      1.0000 0.38020  0.68420  0.13420  Biso   1.000  H  0.124652
  C97      1.0000 0.45000  0.65000  0.18000  Biso   1.000  C  -0.114515
  H52      1.0000 0.45490  0.62380  0.13430  Biso   1.000  H  0.113653
  C98      1.0000 0.48000  0.64000  0.25000  Biso   1.000  C  -0.004940
  C99      1.0000 0.47000  0.67000  0.31000  Biso   1.000  C  -0.105760
  H53      1.0000 0.49230  0.67210  0.35660  Biso   1.000  H  0.124107
  C100     1.0000 0.43000  0.71000  0.31000  Biso   1.000  C  -0.121184
  H54      1.0000 0.41750  0.73260  0.35650  Biso   1.000  H  0.121235
  C101     1.0000 0.53000  0.61000  0.24000  Biso   1.000  C  0.640901
  C102     1.0000 0.59300  0.48000  0.90000  Biso   1.000  C  -0.130019
  H55      1.0000 0.56250  0.46520  0.92420  Biso   1.000  H  0.122666
  C103     1.0000 0.59600  0.48000  0.82000  Biso   1.000  C  -0.165463
  H56      1.0000 0.56750  0.46520  0.78900  Biso   1.000  H  0.123484
  C104     1.0000 0.68000  0.52000  0.83000  Biso   1.000  C  -0.032565
  C105     1.0000 0.68000  0.52000  0.91000  Biso   1.000  C  -0.134973
  H57      1.0000 0.70920  0.53480  0.94630  Biso   1.000  H  0.119967
  C106     1.0000 0.64000  0.55000  0.66000  Biso   1.000  C  -0.110752
  H58      1.0000 0.63930  0.59100  0.68690  Biso   1.000  H  0.120747
  C107     1.0000 0.64000  0.55000  0.58000  Biso   1.000  C  -0.110169
  H59      1.0000 0.63970  0.58880  0.55030  Biso   1.000  H  0.121265
  C108     1.0000 0.72000  0.55000  0.79300  Biso   1.000  C  -0.126589
  H60      1.0000 0.72020  0.55120  0.73860  Biso   1.000  H  0.103088
  C109     1.0000 0.80790  0.67950  0.82750  Biso   1.000  C  0.116281
  C110     1.0000 0.84940  0.71020  0.79660  Biso   1.000  C  0.018073
  C111     1.0000 0.86950  0.76080  0.83370  Biso   1.000  C  -0.303930
  H61      1.0000 0.89780  0.78180  0.81250  Biso   1.000  H  0.124369
  C112     1.0000 0.84810  0.78060  0.90180  Biso   1.000  C  0.134052
  C113     1.0000 0.80660  0.74990  0.93280  Biso   1.000  C  -0.177190
  H62      1.0000 0.79200  0.76340  0.97930  Biso   1.000  H  0.124442
  C114     1.0000 0.78650  0.69930  0.89560  Biso   1.000  C  -0.177190
  H63      1.0000 0.75820  0.67830  0.91680  Biso   1.000  H  0.124369
  C115     1.0000 0.31240  0.69260  0.35550  Biso   1.000  C  0.030129
  C116     1.0000 0.88080  0.30960  0.12300  Biso   1.000  C  0.031300
  O33      1.0000 0.84930  0.84340  0.98490  Biso   1.000  O  -0.226302
  O34      1.0000 0.89990  0.85820  0.90830  Biso   1.000  O  -0.291929
  O35      1.0000 0.87500  0.62930  0.72400  Biso   1.000  O  -0.359696
  O36      1.0000 0.90180  0.71490  0.67770  Biso   1.000  O  -0.365721
  N13      1.0000 0.74870  0.59210  0.83210  Biso   1.000  N  -0.222123
  N14      1.0000 0.78150  0.62950  0.79680  Biso   1.000  N  -0.192272
  H64      1.0000 0.78710  0.62130  0.74800  Biso   1.000  H  0.279646
  N15      1.0000 0.86580  0.82740  0.93170  Biso   1.000  N  0.577495
  N16      1.0000 0.87480  0.68640  0.72610  Biso   1.000  N  0.486647
  Zn5      1.0000 0.07600  0.00000  0.17000  Biso   1.000  Zn  0.979077
  Zn6      1.0000 0.20200  0.00000  0.18600  Biso   1.000  Zn  0.987109
  O37      1.0000 0.14000  0.00000  0.24000  Biso   1.000  O  -1.026775
  O38      1.0000 0.09000  0.00000  0.06000  Biso   1.000  O  -0.541855
  O39      1.0000 0.17000  0.00000  0.07000  Biso   1.000  O  -0.539189
  C117     1.0000 0.13000  0.00000  0.03000  Biso   1.000  C  0.586956
  C118     1.0000 0.14000  0.00000  0.95000  Biso   1.000  C  0.022743
  C119     1.0000 0.14100  0.00000  0.79000  Biso   1.000  C  0.042369
  C120     1.0000 0.14200  0.00000  0.70000  Biso   1.000  C  0.046116
  C121     1.0000 0.14000  0.00000  0.54000  Biso   1.000  C  -0.012201
  C122     1.0000 0.14000  0.00000  0.45000  Biso   1.000  C  0.616266
  Zn7      1.0000 0.57600  0.50000  0.17000  Biso   1.000  Zn  0.979077
  Zn8      1.0000 0.70200  0.50000  0.18600  Biso   1.000  Zn  0.987109
  O40      1.0000 0.64000  0.50000  0.24000  Biso   1.000  O  -1.026775
  O41      1.0000 0.59000  0.50000  0.06000  Biso   1.000  O  -0.541855
  O42      1.0000 0.67000  0.50000  0.07000  Biso   1.000  O  -0.539189
  C123     1.0000 0.63000  0.50000  0.03000  Biso   1.000  C  0.586956
  C124     1.0000 0.64000  0.50000  0.95000  Biso   1.000  C  0.022743
  C125     1.0000 0.64100  0.50000  0.79000  Biso   1.000  C  0.042369
  C126     1.0000 0.64200  0.50000  0.70000  Biso   1.000  C  0.046116
  C127     1.0000 0.64000  0.50000  0.54000  Biso   1.000  C  -0.012201
  C128     1.0000 0.64000  0.50000  0.45000  Biso   1.000  C  0.616266
  Zn9      1.0000 0.86700  0.07000  0.69200  Biso   1.000  Zn  0.984839
  O43      1.0000 0.29000  0.59000  0.81000  Biso   1.000  O  -0.539409
  O44      1.0000 0.31000  0.63000  0.70000  Biso   1.000  O  -0.539536
  O45      1.0000 0.94000  0.89000  0.70000  Biso   1.000  O  -0.539204
  O46      1.0000 0.97000  0.93000  0.81000  Biso   1.000  O  -0.538570
  O47      1.0000 0.87000  0.95000  0.58000  Biso   1.000  O  -0.538570
  C129     1.0000 0.28000  0.63000  0.76000  Biso   1.000  C  0.642161
  C130     1.0000 0.24000  0.67000  0.76000  Biso   1.000  C  -0.007538
  C131     1.0000 0.24000  0.71000  0.70000  Biso   1.000  C  -0.136991
  H65      1.0000 0.26020  0.71650  0.66020  Biso   1.000  H  0.125548
  C132     1.0000 0.19000  0.75000  0.70000  Biso   1.000  C  0.055330
  C133     1.0000 0.16000  0.75000  0.75000  Biso   1.000  C  0.030529
  C134     1.0000 0.16000  0.70000  0.81000  Biso   1.000  C  0.054251
  C135     1.0000 0.20000  0.67000  0.81000  Biso   1.000  C  -0.131987
  H66      1.0000 0.20910  0.63670  0.85360  Biso   1.000  H  0.125410
  C136     1.0000 0.11000  0.79000  0.75000  Biso   1.000  C  0.080790
  C137     1.0000 0.10000  0.82000  0.82000  Biso   1.000  C  -0.116643
  H67      1.0000 0.11980  0.81580  0.86580  Biso   1.000  H  0.124652
  C138     1.0000 0.05000  0.85000  0.82000  Biso   1.000  C  -0.114515
  H68      1.0000 0.04510  0.87620  0.86570  Biso   1.000  H  0.113653
  C139     1.0000 0.02000  0.86000  0.75000  Biso   1.000  C  -0.004940
  C140     1.0000 0.03000  0.83000  0.69000  Biso   1.000  C  -0.105760
  H69      1.0000 0.00770  0.82790  0.64340  Biso   1.000  H  0.124107
  C141     1.0000 0.07000  0.79000  0.69000  Biso   1.000  C  -0.121184
  H70      1.0000 0.08250  0.76740  0.64350  Biso   1.000  H  0.121235
  C142     1.0000 0.97000  0.89000  0.76000  Biso   1.000  C  0.640901
  C143     1.0000 0.90700  0.02000  0.10000  Biso   1.000  C  -0.130019
  H71      1.0000 0.93750  0.03480  0.07580  Biso   1.000  H  0.122666
  C144     1.0000 0.90400  0.02000  0.18000  Biso   1.000  C  -0.165463
  H72      1.0000 0.93250  0.03480  0.21100  Biso   1.000  H  0.123484
  C145     1.0000 0.82000  0.98000  0.17000  Biso   1.000  C  -0.032565
  C146     1.0000 0.82000  0.98000  0.09000  Biso   1.000  C  -0.134973
  H73      1.0000 0.79080  0.96520  0.05370  Biso   1.000  H  0.119967
  C147     1.0000 0.86000  0.95000  0.34000  Biso   1.000  C  -0.110752
  H74      1.0000 0.86070  0.90900  0.31310  Biso   1.000  H  0.120747
  C148     1.0000 0.86000  0.95000  0.42000  Biso   1.000  C  -0.110169
  H75      1.0000 0.86030  0.91120  0.44970  Biso   1.000  H  0.121265
  C149     1.0000 0.78000  0.95000  0.20700  Biso   1.000  C  -0.126589
  H76      1.0000 0.77980  0.94880  0.26140  Biso   1.000  H  0.103088
  C150     1.0000 0.69210  0.82050  0.17250  Biso   1.000  C  0.116281
  C151     1.0000 0.65060  0.78980  0.20340  Biso   1.000  C  0.018073
  C152     1.0000 0.63050  0.73920  0.16630  Biso   1.000  C  -0.303930
  H77      1.0000 0.60220  0.71820  0.18750  Biso   1.000  H  0.124369
  C153     1.0000 0.65190  0.71940  0.09820  Biso   1.000  C  0.134052
  C154     1.0000 0.69340  0.75010  0.06720  Biso   1.000  C  -0.177190
  H78      1.0000 0.70800  0.73660  0.02070  Biso   1.000  H  0.124442
  C155     1.0000 0.71350  0.80070  0.10440  Biso   1.000  C  -0.177190
  H79      1.0000 0.74180  0.82170  0.08320  Biso   1.000  H  0.124369
  C156     1.0000 0.18760  0.80740  0.64450  Biso   1.000  C  0.030129
  C157     1.0000 0.61920  0.19040  0.87700  Biso   1.000  C  0.031300
  O48      1.0000 0.65070  0.65660  0.01510  Biso   1.000  O  -0.226302
  O49      1.0000 0.60010  0.64180  0.09170  Biso   1.000  O  -0.291929
  O50      1.0000 0.62500  0.87070  0.27600  Biso   1.000  O  -0.359696
  O51      1.0000 0.59820  0.78510  0.32230  Biso   1.000  O  -0.365721
  N17      1.0000 0.75130  0.90790  0.16790  Biso   1.000  N  -0.222123
  N18      1.0000 0.71850  0.87050  0.20320  Biso   1.000  N  -0.192272
  H80      1.0000 0.71290  0.87870  0.25200  Biso   1.000  H  0.279646
  N19      1.0000 0.63420  0.67260  0.06830  Biso   1.000  N  0.577495
  N20      1.0000 0.62520  0.81360  0.27390  Biso   1.000  N  0.486647
  Zn10     1.0000 0.36700  0.57000  0.69200  Biso   1.000  Zn  0.984839
  O52      1.0000 0.79000  0.09000  0.81000  Biso   1.000  O  -0.539409
  O53      1.0000 0.81000  0.13000  0.70000  Biso   1.000  O  -0.539536
  O54      1.0000 0.44000  0.39000  0.70000  Biso   1.000  O  -0.539204
  O55      1.0000 0.47000  0.43000  0.81000  Biso   1.000  O  -0.538570
  O56      1.0000 0.37000  0.45000  0.58000  Biso   1.000  O  -0.538570
  C158     1.0000 0.78000  0.13000  0.76000  Biso   1.000  C  0.642161
  C159     1.0000 0.74000  0.17000  0.76000  Biso   1.000  C  -0.007538
  C160     1.0000 0.74000  0.21000  0.70000  Biso   1.000  C  -0.136991
  H81      1.0000 0.76020  0.21650  0.66020  Biso   1.000  H  0.125548
  C161     1.0000 0.69000  0.25000  0.70000  Biso   1.000  C  0.055330
  C162     1.0000 0.66000  0.25000  0.75000  Biso   1.000  C  0.030529
  C163     1.0000 0.66000  0.20000  0.81000  Biso   1.000  C  0.054251
  C164     1.0000 0.70000  0.17000  0.81000  Biso   1.000  C  -0.131987
  H82      1.0000 0.70910  0.13670  0.85360  Biso   1.000  H  0.125410
  C165     1.0000 0.61000  0.29000  0.75000  Biso   1.000  C  0.080790
  C166     1.0000 0.60000  0.32000  0.82000  Biso   1.000  C  -0.116643
  H83      1.0000 0.61980  0.31580  0.86580  Biso   1.000  H  0.124652
  C167     1.0000 0.55000  0.35000  0.82000  Biso   1.000  C  -0.114515
  H84      1.0000 0.54510  0.37620  0.86570  Biso   1.000  H  0.113653
  C168     1.0000 0.52000  0.36000  0.75000  Biso   1.000  C  -0.004940
  C169     1.0000 0.53000  0.33000  0.69000  Biso   1.000  C  -0.105760
  H85      1.0000 0.50770  0.32790  0.64340  Biso   1.000  H  0.124107
  C170     1.0000 0.57000  0.29000  0.69000  Biso   1.000  C  -0.121184
  H86      1.0000 0.58250  0.26740  0.64350  Biso   1.000  H  0.121235
  C171     1.0000 0.47000  0.39000  0.76000  Biso   1.000  C  0.640901
  C172     1.0000 0.40700  0.52000  0.10000  Biso   1.000  C  -0.130019
  H87      1.0000 0.43750  0.53480  0.07580  Biso   1.000  H  0.122666
  C173     1.0000 0.40400  0.52000  0.18000  Biso   1.000  C  -0.165463
  H88      1.0000 0.43250  0.53480  0.21100  Biso   1.000  H  0.123484
  C174     1.0000 0.32000  0.48000  0.17000  Biso   1.000  C  -0.032565
  C175     1.0000 0.32000  0.48000  0.09000  Biso   1.000  C  -0.134973
  H89      1.0000 0.29080  0.46520  0.05370  Biso   1.000  H  0.119967
  C176     1.0000 0.36000  0.45000  0.34000  Biso   1.000  C  -0.110752
  H90      1.0000 0.36070  0.40900  0.31310  Biso   1.000  H  0.120747
  C177     1.0000 0.36000  0.45000  0.42000  Biso   1.000  C  -0.110169
  H91      1.0000 0.36030  0.41120  0.44970  Biso   1.000  H  0.121265
  C178     1.0000 0.28000  0.45000  0.20700  Biso   1.000  C  -0.126589
  H92      1.0000 0.27980  0.44880  0.26140  Biso   1.000  H  0.103088
  C179     1.0000 0.19210  0.32050  0.17250  Biso   1.000  C  0.116281
  C180     1.0000 0.15060  0.28980  0.20340  Biso   1.000  C  0.018073
  C181     1.0000 0.13050  0.23920  0.16630  Biso   1.000  C  -0.303930
  H93      1.0000 0.10220  0.21820  0.18750  Biso   1.000  H  0.124369
  C182     1.0000 0.15190  0.21940  0.09820  Biso   1.000  C  0.134052
  C183     1.0000 0.19340  0.25010  0.06720  Biso   1.000  C  -0.177190
  H94      1.0000 0.20800  0.23660  0.02070  Biso   1.000  H  0.124442
  C184     1.0000 0.21350  0.30070  0.10440  Biso   1.000  C  -0.177190
  H95      1.0000 0.24180  0.32170  0.08320  Biso   1.000  H  0.124369
  C185     1.0000 0.68760  0.30740  0.64450  Biso   1.000  C  0.030129
  C186     1.0000 0.11920  0.69040  0.87700  Biso   1.000  C  0.031300
  O57      1.0000 0.15070  0.15660  0.01510  Biso   1.000  O  -0.226302
  O58      1.0000 0.10010  0.14180  0.09170  Biso   1.000  O  -0.291929
  O59      1.0000 0.12500  0.37070  0.27600  Biso   1.000  O  -0.359696
  O60      1.0000 0.09820  0.28510  0.32230  Biso   1.000  O  -0.365721
  N21      1.0000 0.25130  0.40790  0.16790  Biso   1.000  N  -0.222123
  N22      1.0000 0.21850  0.37050  0.20320  Biso   1.000  N  -0.192272
  H96      1.0000 0.21290  0.37870  0.25200  Biso   1.000  H  0.279646
  N23      1.0000 0.13420  0.17260  0.06830  Biso   1.000  N  0.577495
  N24      1.0000 0.12520  0.31360  0.27390  Biso   1.000  N  0.486647
  Zn11     1.0000 0.86700  0.93000  0.69200  Biso   1.000  Zn  0.984839
  O61      1.0000 0.29000  0.41000  0.81000  Biso   1.000  O  -0.539409
  O62      1.0000 0.31000  0.37000  0.70000  Biso   1.000  O  -0.539536
  O63      1.0000 0.94000  0.11000  0.70000  Biso   1.000  O  -0.539204
  O64      1.0000 0.97000  0.07000  0.81000  Biso   1.000  O  -0.538570
  O65      1.0000 0.87000  0.05000  0.58000  Biso   1.000  O  -0.538570
  C187     1.0000 0.28000  0.37000  0.76000  Biso   1.000  C  0.642161
  C188     1.0000 0.24000  0.33000  0.76000  Biso   1.000  C  -0.007538
  C189     1.0000 0.24000  0.29000  0.70000  Biso   1.000  C  -0.136991
  H97      1.0000 0.26020  0.28350  0.66020  Biso   1.000  H  0.125548
  C190     1.0000 0.19000  0.25000  0.70000  Biso   1.000  C  0.055330
  C191     1.0000 0.16000  0.25000  0.75000  Biso   1.000  C  0.030529
  C192     1.0000 0.16000  0.30000  0.81000  Biso   1.000  C  0.054251
  C193     1.0000 0.20000  0.33000  0.81000  Biso   1.000  C  -0.131987
  H98      1.0000 0.20910  0.36330  0.85360  Biso   1.000  H  0.125410
  C194     1.0000 0.11000  0.21000  0.75000  Biso   1.000  C  0.080790
  C195     1.0000 0.10000  0.18000  0.82000  Biso   1.000  C  -0.116643
  H99      1.0000 0.11980  0.18420  0.86580  Biso   1.000  H  0.124652
  C196     1.0000 0.05000  0.15000  0.82000  Biso   1.000  C  -0.114515
  H100     1.0000 0.04510  0.12380  0.86570  Biso   1.000  H  0.113653
  C197     1.0000 0.02000  0.14000  0.75000  Biso   1.000  C  -0.004940
  C198     1.0000 0.03000  0.17000  0.69000  Biso   1.000  C  -0.105760
  H101     1.0000 0.00770  0.17210  0.64340  Biso   1.000  H  0.124107
  C199     1.0000 0.07000  0.21000  0.69000  Biso   1.000  C  -0.121184
  H102     1.0000 0.08250  0.23260  0.64350  Biso   1.000  H  0.121235
  C200     1.0000 0.97000  0.11000  0.76000  Biso   1.000  C  0.640901
  C201     1.0000 0.90700  0.98000  0.10000  Biso   1.000  C  -0.130019
  H103     1.0000 0.93750  0.96520  0.07580  Biso   1.000  H  0.122666
  C202     1.0000 0.90400  0.98000  0.18000  Biso   1.000  C  -0.165463
  H104     1.0000 0.93250  0.96520  0.21100  Biso   1.000  H  0.123484
  C203     1.0000 0.82000  0.02000  0.17000  Biso   1.000  C  -0.032565
  C204     1.0000 0.82000  0.02000  0.09000  Biso   1.000  C  -0.134973
  H105     1.0000 0.79080  0.03480  0.05370  Biso   1.000  H  0.119967
  C205     1.0000 0.86000  0.05000  0.34000  Biso   1.000  C  -0.110752
  H106     1.0000 0.86070  0.09100  0.31310  Biso   1.000  H  0.120747
  C206     1.0000 0.86000  0.05000  0.42000  Biso   1.000  C  -0.110169
  H107     1.0000 0.86030  0.08880  0.44970  Biso   1.000  H  0.121265
  C207     1.0000 0.78000  0.05000  0.20700  Biso   1.000  C  -0.126589
  H108     1.0000 0.77980  0.05120  0.26140  Biso   1.000  H  0.103088
  C208     1.0000 0.69210  0.17950  0.17250  Biso   1.000  C  0.116281
  C209     1.0000 0.65060  0.21020  0.20340  Biso   1.000  C  0.018073
  C210     1.0000 0.63050  0.26080  0.16630  Biso   1.000  C  -0.303930
  H109     1.0000 0.60220  0.28180  0.18750  Biso   1.000  H  0.124369
  C211     1.0000 0.65190  0.28060  0.09820  Biso   1.000  C  0.134052
  C212     1.0000 0.69340  0.24990  0.06720  Biso   1.000  C  -0.177190
  H110     1.0000 0.70800  0.26340  0.02070  Biso   1.000  H  0.124442
  C213     1.0000 0.71350  0.19930  0.10440  Biso   1.000  C  -0.177190
  H111     1.0000 0.74180  0.17830  0.08320  Biso   1.000  H  0.124369
  C214     1.0000 0.18760  0.19260  0.64450  Biso   1.000  C  0.030129
  C215     1.0000 0.61920  0.80960  0.87700  Biso   1.000  C  0.031300
  O66      1.0000 0.65070  0.34340  0.01510  Biso   1.000  O  -0.226302
  O67      1.0000 0.60010  0.35820  0.09170  Biso   1.000  O  -0.291929
  O68      1.0000 0.62500  0.12930  0.27600  Biso   1.000  O  -0.359696
  O69      1.0000 0.59820  0.21490  0.32230  Biso   1.000  O  -0.365721
  N25      1.0000 0.75130  0.09210  0.16790  Biso   1.000  N  -0.222123
  N26      1.0000 0.71850  0.12950  0.20320  Biso   1.000  N  -0.192272
  H112     1.0000 0.71290  0.12130  0.25200  Biso   1.000  H  0.279646
  N27      1.0000 0.63420  0.32740  0.06830  Biso   1.000  N  0.577495
  N28      1.0000 0.62520  0.18640  0.27390  Biso   1.000  N  0.486647
  Zn12     1.0000 0.36700  0.43000  0.69200  Biso   1.000  Zn  0.984839
  O70      1.0000 0.79000  0.91000  0.81000  Biso   1.000  O  -0.539409
  O71      1.0000 0.81000  0.87000  0.70000  Biso   1.000  O  -0.539536
  O72      1.0000 0.44000  0.61000  0.70000  Biso   1.000  O  -0.539204
  O73      1.0000 0.47000  0.57000  0.81000  Biso   1.000  O  -0.538570
  O74      1.0000 0.37000  0.55000  0.58000  Biso   1.000  O  -0.538570
  C216     1.0000 0.78000  0.87000  0.76000  Biso   1.000  C  0.642161
  C217     1.0000 0.74000  0.83000  0.76000  Biso   1.000  C  -0.007538
  C218     1.0000 0.74000  0.79000  0.70000  Biso   1.000  C  -0.136991
  H113     1.0000 0.76020  0.78350  0.66020  Biso   1.000  H  0.125548
  C219     1.0000 0.69000  0.75000  0.70000  Biso   1.000  C  0.055330
  C220     1.0000 0.66000  0.75000  0.75000  Biso   1.000  C  0.030529
  C221     1.0000 0.66000  0.80000  0.81000  Biso   1.000  C  0.054251
  C222     1.0000 0.70000  0.83000  0.81000  Biso   1.000  C  -0.131987
  H114     1.0000 0.70910  0.86330  0.85360  Biso   1.000  H  0.125410
  C223     1.0000 0.61000  0.71000  0.75000  Biso   1.000  C  0.080790
  C224     1.0000 0.60000  0.68000  0.82000  Biso   1.000  C  -0.116643
  H115     1.0000 0.61980  0.68420  0.86580  Biso   1.000  H  0.124652
  C225     1.0000 0.55000  0.65000  0.82000  Biso   1.000  C  -0.114515
  H116     1.0000 0.54510  0.62380  0.86570  Biso   1.000  H  0.113653
  C226     1.0000 0.52000  0.64000  0.75000  Biso   1.000  C  -0.004940
  C227     1.0000 0.53000  0.67000  0.69000  Biso   1.000  C  -0.105760
  H117     1.0000 0.50770  0.67210  0.64340  Biso   1.000  H  0.124107
  C228     1.0000 0.57000  0.71000  0.69000  Biso   1.000  C  -0.121184
  H118     1.0000 0.58250  0.73260  0.64350  Biso   1.000  H  0.121235
  C229     1.0000 0.47000  0.61000  0.76000  Biso   1.000  C  0.640901
  C230     1.0000 0.40700  0.48000  0.10000  Biso   1.000  C  -0.130019
  H119     1.0000 0.43750  0.46520  0.07580  Biso   1.000  H  0.122666
  C231     1.0000 0.40400  0.48000  0.18000  Biso   1.000  C  -0.165463
  H120     1.0000 0.43250  0.46520  0.21100  Biso   1.000  H  0.123484
  C232     1.0000 0.32000  0.52000  0.17000  Biso   1.000  C  -0.032565
  C233     1.0000 0.32000  0.52000  0.09000  Biso   1.000  C  -0.134973
  H121     1.0000 0.29080  0.53480  0.05370  Biso   1.000  H  0.119967
  C234     1.0000 0.36000  0.55000  0.34000  Biso   1.000  C  -0.110752
  H122     1.0000 0.36070  0.59100  0.31310  Biso   1.000  H  0.120747
  C235     1.0000 0.36000  0.55000  0.42000  Biso   1.000  C  -0.110169
  H123     1.0000 0.36030  0.58880  0.44970  Biso   1.000  H  0.121265
  C236     1.0000 0.28000  0.55000  0.20700  Biso   1.000  C  -0.126589
  H124     1.0000 0.27980  0.55120  0.26140  Biso   1.000  H  0.103088
  C237     1.0000 0.19210  0.67950  0.17250  Biso   1.000  C  0.116281
  C238     1.0000 0.15060  0.71020  0.20340  Biso   1.000  C  0.018073
  C239     1.0000 0.13050  0.76080  0.16630  Biso   1.000  C  -0.303930
  H125     1.0000 0.10220  0.78180  0.18750  Biso   1.000  H  0.124369
  C240     1.0000 0.15190  0.78060  0.09820  Biso   1.000  C  0.134052
  C241     1.0000 0.19340  0.74990  0.06720  Biso   1.000  C  -0.177190
  H126     1.0000 0.20800  0.76340  0.02070  Biso   1.000  H  0.124442
  C242     1.0000 0.21350  0.69930  0.10440  Biso   1.000  C  -0.177190
  H127     1.0000 0.24180  0.67830  0.08320  Biso   1.000  H  0.124369
  C243     1.0000 0.68760  0.69260  0.64450  Biso   1.000  C  0.030129
  C244     1.0000 0.11920  0.30960  0.87700  Biso   1.000  C  0.031300
  O75      1.0000 0.15070  0.84340  0.01510  Biso   1.000  O  -0.226302
  O76      1.0000 0.10010  0.85820  0.09170  Biso   1.000  O  -0.291929
  O77      1.0000 0.12500  0.62930  0.27600  Biso   1.000  O  -0.359696
  O78      1.0000 0.09820  0.71490  0.32230  Biso   1.000  O  -0.365721
  N29      1.0000 0.25130  0.59210  0.16790  Biso   1.000  N  -0.222123
  N30      1.0000 0.21850  0.62950  0.20320  Biso   1.000  N  -0.192272
  H128     1.0000 0.21290  0.62130  0.25200  Biso   1.000  H  0.279646
  N31      1.0000 0.13420  0.82740  0.06830  Biso   1.000  N  0.577495
  N32      1.0000 0.12520  0.68640  0.27390  Biso   1.000  N  0.486647
  Zn13     1.0000 0.92400  0.00000  0.83000  Biso   1.000  Zn  0.979077
  Zn14     1.0000 0.79800  0.00000  0.81400  Biso   1.000  Zn  0.987109
  O79      1.0000 0.86000  0.00000  0.76000  Biso   1.000  O  -1.026775
  O80      1.0000 0.91000  0.00000  0.94000  Biso   1.000  O  -0.541855
  O81      1.0000 0.83000  0.00000  0.93000  Biso   1.000  O  -0.539189
  C245     1.0000 0.87000  0.00000  0.97000  Biso   1.000  C  0.586956
  C246     1.0000 0.86000  0.00000  0.05000  Biso   1.000  C  0.022743
  C247     1.0000 0.85900  0.00000  0.21000  Biso   1.000  C  0.042369
  C248     1.0000 0.85800  0.00000  0.30000  Biso   1.000  C  0.046116
  C249     1.0000 0.86000  0.00000  0.46000  Biso   1.000  C  -0.012201
  C250     1.0000 0.86000  0.00000  0.55000  Biso   1.000  C  0.616266
  Zn15     1.0000 0.42400  0.50000  0.83000  Biso   1.000  Zn  0.979077
  Zn16     1.0000 0.29800  0.50000  0.81400  Biso   1.000  Zn  0.987109
  O82      1.0000 0.36000  0.50000  0.76000  Biso   1.000  O  -1.026775
  O83      1.0000 0.41000  0.50000  0.94000  Biso   1.000  O  -0.541855
  O84      1.0000 0.33000  0.50000  0.93000  Biso   1.000  O  -0.539189
  C251     1.0000 0.37000  0.50000  0.97000  Biso   1.000  C  0.586956
  C252     1.0000 0.36000  0.50000  0.05000  Biso   1.000  C  0.022743
  C253     1.0000 0.35900  0.50000  0.21000  Biso   1.000  C  0.042369
  C254     1.0000 0.35800  0.50000  0.30000  Biso   1.000  C  0.046116
  C255     1.0000 0.36000  0.50000  0.46000  Biso   1.000  C  -0.012201
  C256     1.0000 0.36000  0.50000  0.55000  Biso   1.000  C  0.616266
