data_image0
_cell_length_a       27.156
_cell_length_b       26.242
_cell_length_c       13.2949
_cell_angle_alpha    90
_cell_angle_beta     90.57
_cell_angle_gamma    90

_symmetry_space_group_name_H-M    "P 1"
_symmetry_int_tables_number       1

loop_
  _symmetry_equiv_pos_as_xyz
  'x, y, z'

loop_
  _atom_site_label
  _atom_site_occupancy
  _atom_site_fract_x
  _atom_site_fract_y
  _atom_site_fract_z
  _atom_site_thermal_displace_type
  _atom_site_B_iso_or_equiv
  _atom_site_type_symbol
  _atom_site_charge
  Cd1      1.0000 0.06174  0.42034  0.17877  Biso   1.000  Cd  0.522361
  Cd2      1.0000 0.08705  0.42014  0.87441  Biso   1.000  Cd  0.521949
  N1       1.0000 0.11380  0.37480  0.28870  Biso   1.000  N  -0.272154
  N2       1.0000 0.14010  0.36860  0.77720  Biso   1.000  N  -0.260247
  C1       1.0000 0.18050  0.31890  0.40510  Biso   1.000  C  0.072039
  C2       1.0000 0.19020  0.31110  0.63310  Biso   1.000  C  0.066860
  C3       1.0000 0.14240  0.31830  0.78310  Biso   1.000  C  0.056947
  H1       1.0000 0.12720  0.30250  0.83710  Biso   1.000  H  0.079041
  C4       1.0000 0.16170  0.38200  0.28360  Biso   1.000  C  0.061201
  H2       1.0000 0.17240  0.40710  0.23970  Biso   1.000  H  0.078181
  C5       1.0000 0.13210  0.31180  0.41380  Biso   1.000  C  -0.197705
  H3       1.0000 0.12030  0.28790  0.45930  Biso   1.000  H  0.098862
  C6       1.0000 0.16630  0.28780  0.71360  Biso   1.000  C  -0.202848
  H4       1.0000 0.16630  0.25250  0.72040  Biso   1.000  H  0.098857
  C7       1.0000 0.24810  0.25560  0.39620  Biso   1.000  C  -0.169906
  H5       1.0000 0.24590  0.25850  0.32660  Biso   1.000  H  0.098574
  C8       1.0000 0.21850  0.27910  0.56010  Biso   1.000  C  0.028151
  C9       1.0000 0.19740  0.35600  0.33720  Biso   1.000  C  -0.202511
  H6       1.0000 0.23070  0.36260  0.32900  Biso   1.000  H  0.099152
  C10      1.0000 0.18650  0.36320  0.62560  Biso   1.000  C  -0.196302
  H7       1.0000 0.20050  0.38010  0.57140  Biso   1.000  H  0.098862
  C11      1.0000 0.16210  0.39030  0.69790  Biso   1.000  C  0.056522
  H8       1.0000 0.16070  0.42560  0.69170  Biso   1.000  H  0.077190
  C12      1.0000 0.21720  0.28670  0.45950  Biso   1.000  C  0.030018
  C13      1.0000 0.09880  0.34030  0.35430  Biso   1.000  C  0.054714
  H9       1.0000 0.06520  0.33470  0.36140  Biso   1.000  H  0.078758
  S1       1.0000 0.97948  0.40776  0.25960  Biso   1.000  S  -0.308360
  C14      1.0000 0.97520  0.34080  0.27810  Biso   1.000  C  0.125285
  C15      1.0000 0.96250  0.32190  0.37290  Biso   1.000  C  -0.132729
  H10      1.0000 0.95570  0.34470  0.42440  Biso   1.000  H  0.099051
  C16      1.0000 0.96000  0.27040  0.39190  Biso   1.000  C  -0.099193
  H11      1.0000 0.95180  0.25870  0.45560  Biso   1.000  H  0.098667
  C17      1.0000 0.96970  0.23620  0.31490  Biso   1.000  C  -0.102198
  H12      1.0000 0.96730  0.20140  0.32680  Biso   1.000  H  0.099051
  C18      1.0000 0.98310  0.25370  0.22000  Biso   1.000  C  -0.102194
  H13      1.0000 0.99050  0.23100  0.16870  Biso   1.000  H  0.099012
  C19      1.0000 0.98510  0.30590  0.20430  Biso   1.000  C  -0.132349
  H14      1.0000 0.99350  0.31780  0.14080  Biso   1.000  H  0.098859
  S2       1.0000 0.08078  0.36502  0.02665  Biso   1.000  S  -0.308482
  C20      1.0000 0.13950  0.33740  0.05290  Biso   1.000  C  0.115630
  C21      1.0000 0.18280  0.35930  0.02730  Biso   1.000  C  -0.131705
  H15      1.0000 0.18260  0.39100  0.99600  Biso   1.000  H  0.098670
  C22      1.0000 0.22760  0.33510  0.04700  Biso   1.000  C  -0.095694
  H16      1.0000 0.25640  0.35080  0.02580  Biso   1.000  H  0.098674
  C23      1.0000 0.23120  0.28960  0.09580  Biso   1.000  C  -0.100733
  H17      1.0000 0.26130  0.27490  0.11320  Biso   1.000  H  0.098795
  C24      1.0000 0.18710  0.26700  0.11720  Biso   1.000  C  -0.096113
  H18      1.0000 0.18710  0.23430  0.14410  Biso   1.000  H  0.098936
  C25      1.0000 0.14230  0.29100  0.10050  Biso   1.000  C  -0.133193
  H19      1.0000 0.11350  0.27540  0.12190  Biso   1.000  H  0.098557
  Cd3      1.0000 0.56174  0.92034  0.17877  Biso   1.000  Cd  0.522361
  Cd4      1.0000 0.58705  0.92014  0.87441  Biso   1.000  Cd  0.521949
  N3       1.0000 0.61380  0.87480  0.28870  Biso   1.000  N  -0.272154
  N4       1.0000 0.64010  0.86860  0.77720  Biso   1.000  N  -0.260247
  C26      1.0000 0.68050  0.81890  0.40510  Biso   1.000  C  0.072039
  C27      1.0000 0.69020  0.81110  0.63310  Biso   1.000  C  0.066860
  C28      1.0000 0.64240  0.81830  0.78310  Biso   1.000  C  0.056947
  H20      1.0000 0.62720  0.80250  0.83710  Biso   1.000  H  0.079041
  C29      1.0000 0.66170  0.88200  0.28360  Biso   1.000  C  0.061201
  H21      1.0000 0.67240  0.90710  0.23970  Biso   1.000  H  0.078181
  C30      1.0000 0.63210  0.81180  0.41380  Biso   1.000  C  -0.197705
  H22      1.0000 0.62030  0.78790  0.45930  Biso   1.000  H  0.098862
  C31      1.0000 0.66630  0.78780  0.71360  Biso   1.000  C  -0.202848
  H23      1.0000 0.66630  0.75250  0.72040  Biso   1.000  H  0.098857
  C32      1.0000 0.74810  0.75560  0.39620  Biso   1.000  C  -0.169906
  H24      1.0000 0.74590  0.75850  0.32660  Biso   1.000  H  0.098574
  C33      1.0000 0.71850  0.77910  0.56010  Biso   1.000  C  0.028151
  C34      1.0000 0.69740  0.85600  0.33720  Biso   1.000  C  -0.202511
  H25      1.0000 0.73070  0.86260  0.32900  Biso   1.000  H  0.099152
  C35      1.0000 0.68650  0.86320  0.62560  Biso   1.000  C  -0.196302
  H26      1.0000 0.70050  0.88010  0.57140  Biso   1.000  H  0.098862
  C36      1.0000 0.66210  0.89030  0.69790  Biso   1.000  C  0.056522
  H27      1.0000 0.66070  0.92560  0.69170  Biso   1.000  H  0.077190
  C37      1.0000 0.71720  0.78670  0.45950  Biso   1.000  C  0.030018
  C38      1.0000 0.59880  0.84030  0.35430  Biso   1.000  C  0.054714
  H28      1.0000 0.56520  0.83470  0.36140  Biso   1.000  H  0.078758
  S3       1.0000 0.47948  0.90776  0.25960  Biso   1.000  S  -0.308360
  C39      1.0000 0.47520  0.84080  0.27810  Biso   1.000  C  0.125285
  C40      1.0000 0.46250  0.82190  0.37290  Biso   1.000  C  -0.132729
  H29      1.0000 0.45570  0.84470  0.42440  Biso   1.000  H  0.099051
  C41      1.0000 0.46000  0.77040  0.39190  Biso   1.000  C  -0.099193
  H30      1.0000 0.45180  0.75870  0.45560  Biso   1.000  H  0.098667
  C42      1.0000 0.46970  0.73620  0.31490  Biso   1.000  C  -0.102198
  H31      1.0000 0.46730  0.70140  0.32680  Biso   1.000  H  0.099051
  C43      1.0000 0.48310  0.75370  0.22000  Biso   1.000  C  -0.102194
  H32      1.0000 0.49050  0.73100  0.16870  Biso   1.000  H  0.099012
  C44      1.0000 0.48510  0.80590  0.20430  Biso   1.000  C  -0.132349
  H33      1.0000 0.49350  0.81780  0.14080  Biso   1.000  H  0.098859
  S4       1.0000 0.58078  0.86502  0.02665  Biso   1.000  S  -0.308482
  C45      1.0000 0.63950  0.83740  0.05290  Biso   1.000  C  0.115630
  C46      1.0000 0.68280  0.85930  0.02730  Biso   1.000  C  -0.131705
  H34      1.0000 0.68260  0.89100  0.99600  Biso   1.000  H  0.098670
  C47      1.0000 0.72760  0.83510  0.04700  Biso   1.000  C  -0.095694
  H35      1.0000 0.75640  0.85080  0.02580  Biso   1.000  H  0.098674
  C48      1.0000 0.73120  0.78960  0.09580  Biso   1.000  C  -0.100733
  H36      1.0000 0.76130  0.77490  0.11320  Biso   1.000  H  0.098795
  C49      1.0000 0.68710  0.76700  0.11720  Biso   1.000  C  -0.096113
  H37      1.0000 0.68710  0.73430  0.14410  Biso   1.000  H  0.098936
  C50      1.0000 0.64230  0.79100  0.10050  Biso   1.000  C  -0.133193
  H38      1.0000 0.61350  0.77540  0.12190  Biso   1.000  H  0.098557
  Cd5      1.0000 0.93826  0.42034  0.82123  Biso   1.000  Cd  0.522361
  Cd6      1.0000 0.91295  0.42014  0.12559  Biso   1.000  Cd  0.521949
  N5       1.0000 0.88620  0.37480  0.71130  Biso   1.000  N  -0.272154
  N6       1.0000 0.85990  0.36860  0.22280  Biso   1.000  N  -0.260247
  C51      1.0000 0.81950  0.31890  0.59490  Biso   1.000  C  0.072039
  C52      1.0000 0.80980  0.31110  0.36690  Biso   1.000  C  0.066860
  C53      1.0000 0.85760  0.31830  0.21690  Biso   1.000  C  0.056947
  H39      1.0000 0.87280  0.30250  0.16290  Biso   1.000  H  0.079041
  C54      1.0000 0.83830  0.38200  0.71640  Biso   1.000  C  0.061201
  H40      1.0000 0.82760  0.40710  0.76030  Biso   1.000  H  0.078181
  C55      1.0000 0.86790  0.31180  0.58620  Biso   1.000  C  -0.197705
  H41      1.0000 0.87970  0.28790  0.54070  Biso   1.000  H  0.098862
  C56      1.0000 0.83370  0.28780  0.28640  Biso   1.000  C  -0.202848
  H42      1.0000 0.83370  0.25250  0.27960  Biso   1.000  H  0.098857
  C57      1.0000 0.75190  0.25560  0.60380  Biso   1.000  C  -0.169906
  H43      1.0000 0.75410  0.25850  0.67340  Biso   1.000  H  0.098574
  C58      1.0000 0.78150  0.27910  0.43990  Biso   1.000  C  0.028151
  C59      1.0000 0.80260  0.35600  0.66280  Biso   1.000  C  -0.202511
  H44      1.0000 0.76930  0.36260  0.67100  Biso   1.000  H  0.099152
  C60      1.0000 0.81350  0.36320  0.37440  Biso   1.000  C  -0.196302
  H45      1.0000 0.79950  0.38010  0.42860  Biso   1.000  H  0.098862
  C61      1.0000 0.83790  0.39030  0.30210  Biso   1.000  C  0.056522
  H46      1.0000 0.83930  0.42560  0.30830  Biso   1.000  H  0.077190
  C62      1.0000 0.78280  0.28670  0.54050  Biso   1.000  C  0.030018
  C63      1.0000 0.90120  0.34030  0.64570  Biso   1.000  C  0.054714
  H47      1.0000 0.93480  0.33470  0.63860  Biso   1.000  H  0.078758
  S5       1.0000 0.02052  0.40776  0.74040  Biso   1.000  S  -0.308360
  C64      1.0000 0.02480  0.34080  0.72190  Biso   1.000  C  0.125285
  C65      1.0000 0.03750  0.32190  0.62710  Biso   1.000  C  -0.132729
  H48      1.0000 0.04430  0.34470  0.57560  Biso   1.000  H  0.099051
  C66      1.0000 0.04000  0.27040  0.60810  Biso   1.000  C  -0.099193
  H49      1.0000 0.04820  0.25870  0.54440  Biso   1.000  H  0.098667
  C67      1.0000 0.03030  0.23620  0.68510  Biso   1.000  C  -0.102198
  H50      1.0000 0.03270  0.20140  0.67320  Biso   1.000  H  0.099051
  C68      1.0000 0.01690  0.25370  0.78000  Biso   1.000  C  -0.102194
  H51      1.0000 0.00950  0.23100  0.83130  Biso   1.000  H  0.099012
  C69      1.0000 0.01490  0.30590  0.79570  Biso   1.000  C  -0.132349
  H52      1.0000 0.00650  0.31780  0.85920  Biso   1.000  H  0.098859
  S6       1.0000 0.91922  0.36502  0.97335  Biso   1.000  S  -0.308482
  C70      1.0000 0.86050  0.33740  0.94710  Biso   1.000  C  0.115630
  C71      1.0000 0.81720  0.35930  0.97270  Biso   1.000  C  -0.131705
  H53      1.0000 0.81740  0.39100  0.00400  Biso   1.000  H  0.098670
  C72      1.0000 0.77240  0.33510  0.95300  Biso   1.000  C  -0.095694
  H54      1.0000 0.74360  0.35080  0.97420  Biso   1.000  H  0.098674
  C73      1.0000 0.76880  0.28960  0.90420  Biso   1.000  C  -0.100733
  H55      1.0000 0.73870  0.27490  0.88680  Biso   1.000  H  0.098795
  C74      1.0000 0.81290  0.26700  0.88280  Biso   1.000  C  -0.096113
  H56      1.0000 0.81290  0.23430  0.85590  Biso   1.000  H  0.098936
  C75      1.0000 0.85770  0.29100  0.89950  Biso   1.000  C  -0.133193
  H57      1.0000 0.88650  0.27540  0.87810  Biso   1.000  H  0.098557
  Cd7      1.0000 0.43826  0.92034  0.82123  Biso   1.000  Cd  0.522361
  Cd8      1.0000 0.41295  0.92014  0.12559  Biso   1.000  Cd  0.521949
  N7       1.0000 0.38620  0.87480  0.71130  Biso   1.000  N  -0.272154
  N8       1.0000 0.35990  0.86860  0.22280  Biso   1.000  N  -0.260247
  C76      1.0000 0.31950  0.81890  0.59490  Biso   1.000  C  0.072039
  C77      1.0000 0.30980  0.81110  0.36690  Biso   1.000  C  0.066860
  C78      1.0000 0.35760  0.81830  0.21690  Biso   1.000  C  0.056947
  H58      1.0000 0.37280  0.80250  0.16290  Biso   1.000  H  0.079041
  C79      1.0000 0.33830  0.88200  0.71640  Biso   1.000  C  0.061201
  H59      1.0000 0.32760  0.90710  0.76030  Biso   1.000  H  0.078181
  C80      1.0000 0.36790  0.81180  0.58620  Biso   1.000  C  -0.197705
  H60      1.0000 0.37970  0.78790  0.54070  Biso   1.000  H  0.098862
  C81      1.0000 0.33370  0.78780  0.28640  Biso   1.000  C  -0.202848
  H61      1.0000 0.33370  0.75250  0.27960  Biso   1.000  H  0.098857
  C82      1.0000 0.25190  0.75560  0.60380  Biso   1.000  C  -0.169906
  H62      1.0000 0.25410  0.75850  0.67340  Biso   1.000  H  0.098574
  C83      1.0000 0.28150  0.77910  0.43990  Biso   1.000  C  0.028151
  C84      1.0000 0.30260  0.85600  0.66280  Biso   1.000  C  -0.202511
  H63      1.0000 0.26930  0.86260  0.67100  Biso   1.000  H  0.099152
  C85      1.0000 0.31350  0.86320  0.37440  Biso   1.000  C  -0.196302
  H64      1.0000 0.29950  0.88010  0.42860  Biso   1.000  H  0.098862
  C86      1.0000 0.33790  0.89030  0.30210  Biso   1.000  C  0.056522
  H65      1.0000 0.33930  0.92560  0.30830  Biso   1.000  H  0.077190
  C87      1.0000 0.28280  0.78670  0.54050  Biso   1.000  C  0.030018
  C88      1.0000 0.40120  0.84030  0.64570  Biso   1.000  C  0.054714
  H66      1.0000 0.43480  0.83470  0.63860  Biso   1.000  H  0.078758
  S7       1.0000 0.52052  0.90776  0.74040  Biso   1.000  S  -0.308360
  C89      1.0000 0.52480  0.84080  0.72190  Biso   1.000  C  0.125285
  C90      1.0000 0.53750  0.82190  0.62710  Biso   1.000  C  -0.132729
  H67      1.0000 0.54430  0.84470  0.57560  Biso   1.000  H  0.099051
  C91      1.0000 0.54000  0.77040  0.60810  Biso   1.000  C  -0.099193
  H68      1.0000 0.54820  0.75870  0.54440  Biso   1.000  H  0.098667
  C92      1.0000 0.53030  0.73620  0.68510  Biso   1.000  C  -0.102198
  H69      1.0000 0.53270  0.70140  0.67320  Biso   1.000  H  0.099051
  C93      1.0000 0.51690  0.75370  0.78000  Biso   1.000  C  -0.102194
  H70      1.0000 0.50950  0.73100  0.83130  Biso   1.000  H  0.099012
  C94      1.0000 0.51490  0.80590  0.79570  Biso   1.000  C  -0.132349
  H71      1.0000 0.50650  0.81780  0.85920  Biso   1.000  H  0.098859
  S8       1.0000 0.41922  0.86502  0.97335  Biso   1.000  S  -0.308482
  C95      1.0000 0.36050  0.83740  0.94710  Biso   1.000  C  0.115630
  C96      1.0000 0.31720  0.85930  0.97270  Biso   1.000  C  -0.131705
  H72      1.0000 0.31740  0.89100  0.00400  Biso   1.000  H  0.098670
  C97      1.0000 0.27240  0.83510  0.95300  Biso   1.000  C  -0.095694
  H73      1.0000 0.24360  0.85080  0.97420  Biso   1.000  H  0.098674
  C98      1.0000 0.26880  0.78960  0.90420  Biso   1.000  C  -0.100733
  H74      1.0000 0.23870  0.77490  0.88680  Biso   1.000  H  0.098795
  C99      1.0000 0.31290  0.76700  0.88280  Biso   1.000  C  -0.096113
  H75      1.0000 0.31290  0.73430  0.85590  Biso   1.000  H  0.098936
  C100     1.0000 0.35770  0.79100  0.89950  Biso   1.000  C  -0.133193
  H76      1.0000 0.38650  0.77540  0.87810  Biso   1.000  H  0.098557
  Cd9      1.0000 0.93826  0.57966  0.82123  Biso   1.000  Cd  0.522361
  Cd10     1.0000 0.91295  0.57986  0.12559  Biso   1.000  Cd  0.521949
  N9       1.0000 0.88620  0.62520  0.71130  Biso   1.000  N  -0.272154
  N10      1.0000 0.85990  0.63140  0.22280  Biso   1.000  N  -0.260247
  C101     1.0000 0.81950  0.68110  0.59490  Biso   1.000  C  0.072039
  C102     1.0000 0.80980  0.68890  0.36690  Biso   1.000  C  0.066860
  C103     1.0000 0.85760  0.68170  0.21690  Biso   1.000  C  0.056947
  H77      1.0000 0.87280  0.69750  0.16290  Biso   1.000  H  0.079041
  C104     1.0000 0.83830  0.61800  0.71640  Biso   1.000  C  0.061201
  H78      1.0000 0.82760  0.59290  0.76030  Biso   1.000  H  0.078181
  C105     1.0000 0.86790  0.68820  0.58620  Biso   1.000  C  -0.197705
  H79      1.0000 0.87970  0.71210  0.54070  Biso   1.000  H  0.098862
  C106     1.0000 0.83370  0.71220  0.28640  Biso   1.000  C  -0.202848
  H80      1.0000 0.83370  0.74750  0.27960  Biso   1.000  H  0.098857
  C107     1.0000 0.75190  0.74440  0.60380  Biso   1.000  C  -0.169906
  H81      1.0000 0.75410  0.74150  0.67340  Biso   1.000  H  0.098574
  C108     1.0000 0.78150  0.72090  0.43990  Biso   1.000  C  0.028151
  C109     1.0000 0.80260  0.64400  0.66280  Biso   1.000  C  -0.202511
  H82      1.0000 0.76930  0.63740  0.67100  Biso   1.000  H  0.099152
  C110     1.0000 0.81350  0.63680  0.37440  Biso   1.000  C  -0.196302
  H83      1.0000 0.79950  0.61990  0.42860  Biso   1.000  H  0.098862
  C111     1.0000 0.83790  0.60970  0.30210  Biso   1.000  C  0.056522
  H84      1.0000 0.83930  0.57440  0.30830  Biso   1.000  H  0.077190
  C112     1.0000 0.78280  0.71330  0.54050  Biso   1.000  C  0.030018
  C113     1.0000 0.90120  0.65970  0.64570  Biso   1.000  C  0.054714
  H85      1.0000 0.93480  0.66530  0.63860  Biso   1.000  H  0.078758
  S9       1.0000 0.02052  0.59224  0.74040  Biso   1.000  S  -0.308360
  C114     1.0000 0.02480  0.65920  0.72190  Biso   1.000  C  0.125285
  C115     1.0000 0.03750  0.67810  0.62710  Biso   1.000  C  -0.132729
  H86      1.0000 0.04430  0.65530  0.57560  Biso   1.000  H  0.099051
  C116     1.0000 0.04000  0.72960  0.60810  Biso   1.000  C  -0.099193
  H87      1.0000 0.04820  0.74130  0.54440  Biso   1.000  H  0.098667
  C117     1.0000 0.03030  0.76380  0.68510  Biso   1.000  C  -0.102198
  H88      1.0000 0.03270  0.79860  0.67320  Biso   1.000  H  0.099051
  C118     1.0000 0.01690  0.74630  0.78000  Biso   1.000  C  -0.102194
  H89      1.0000 0.00950  0.76900  0.83130  Biso   1.000  H  0.099012
  C119     1.0000 0.01490  0.69410  0.79570  Biso   1.000  C  -0.132349
  H90      1.0000 0.00650  0.68220  0.85920  Biso   1.000  H  0.098859
  S10      1.0000 0.91922  0.63498  0.97335  Biso   1.000  S  -0.308482
  C120     1.0000 0.86050  0.66260  0.94710  Biso   1.000  C  0.115630
  C121     1.0000 0.81720  0.64070  0.97270  Biso   1.000  C  -0.131705
  H91      1.0000 0.81740  0.60900  0.00400  Biso   1.000  H  0.098670
  C122     1.0000 0.77240  0.66490  0.95300  Biso   1.000  C  -0.095694
  H92      1.0000 0.74360  0.64920  0.97420  Biso   1.000  H  0.098674
  C123     1.0000 0.76880  0.71040  0.90420  Biso   1.000  C  -0.100733
  H93      1.0000 0.73870  0.72510  0.88680  Biso   1.000  H  0.098795
  C124     1.0000 0.81290  0.73300  0.88280  Biso   1.000  C  -0.096113
  H94      1.0000 0.81290  0.76570  0.85590  Biso   1.000  H  0.098936
  C125     1.0000 0.85770  0.70900  0.89950  Biso   1.000  C  -0.133193
  H95      1.0000 0.88650  0.72460  0.87810  Biso   1.000  H  0.098557
  Cd11     1.0000 0.43826  0.07966  0.82123  Biso   1.000  Cd  0.522361
  Cd12     1.0000 0.41295  0.07986  0.12559  Biso   1.000  Cd  0.521949
  N11      1.0000 0.38620  0.12520  0.71130  Biso   1.000  N  -0.272154
  N12      1.0000 0.35990  0.13140  0.22280  Biso   1.000  N  -0.260247
  C126     1.0000 0.31950  0.18110  0.59490  Biso   1.000  C  0.072039
  C127     1.0000 0.30980  0.18890  0.36690  Biso   1.000  C  0.066860
  C128     1.0000 0.35760  0.18170  0.21690  Biso   1.000  C  0.056947
  H96      1.0000 0.37280  0.19750  0.16290  Biso   1.000  H  0.079041
  C129     1.0000 0.33830  0.11800  0.71640  Biso   1.000  C  0.061201
  H97      1.0000 0.32760  0.09290  0.76030  Biso   1.000  H  0.078181
  C130     1.0000 0.36790  0.18820  0.58620  Biso   1.000  C  -0.197705
  H98      1.0000 0.37970  0.21210  0.54070  Biso   1.000  H  0.098862
  C131     1.0000 0.33370  0.21220  0.28640  Biso   1.000  C  -0.202848
  H99      1.0000 0.33370  0.24750  0.27960  Biso   1.000  H  0.098857
  C132     1.0000 0.25190  0.24440  0.60380  Biso   1.000  C  -0.169906
  H100     1.0000 0.25410  0.24150  0.67340  Biso   1.000  H  0.098574
  C133     1.0000 0.28150  0.22090  0.43990  Biso   1.000  C  0.028151
  C134     1.0000 0.30260  0.14400  0.66280  Biso   1.000  C  -0.202511
  H101     1.0000 0.26930  0.13740  0.67100  Biso   1.000  H  0.099152
  C135     1.0000 0.31350  0.13680  0.37440  Biso   1.000  C  -0.196302
  H102     1.0000 0.29950  0.11990  0.42860  Biso   1.000  H  0.098862
  C136     1.0000 0.33790  0.10970  0.30210  Biso   1.000  C  0.056522
  H103     1.0000 0.33930  0.07440  0.30830  Biso   1.000  H  0.077190
  C137     1.0000 0.28280  0.21330  0.54050  Biso   1.000  C  0.030018
  C138     1.0000 0.40120  0.15970  0.64570  Biso   1.000  C  0.054714
  H104     1.0000 0.43480  0.16530  0.63860  Biso   1.000  H  0.078758
  S11      1.0000 0.52052  0.09224  0.74040  Biso   1.000  S  -0.308360
  C139     1.0000 0.52480  0.15920  0.72190  Biso   1.000  C  0.125285
  C140     1.0000 0.53750  0.17810  0.62710  Biso   1.000  C  -0.132729
  H105     1.0000 0.54430  0.15530  0.57560  Biso   1.000  H  0.099051
  C141     1.0000 0.54000  0.22960  0.60810  Biso   1.000  C  -0.099193
  H106     1.0000 0.54820  0.24130  0.54440  Biso   1.000  H  0.098667
  C142     1.0000 0.53030  0.26380  0.68510  Biso   1.000  C  -0.102198
  H107     1.0000 0.53270  0.29860  0.67320  Biso   1.000  H  0.099051
  C143     1.0000 0.51690  0.24630  0.78000  Biso   1.000  C  -0.102194
  H108     1.0000 0.50950  0.26900  0.83130  Biso   1.000  H  0.099012
  C144     1.0000 0.51490  0.19410  0.79570  Biso   1.000  C  -0.132349
  H109     1.0000 0.50650  0.18220  0.85920  Biso   1.000  H  0.098859
  S12      1.0000 0.41922  0.13498  0.97335  Biso   1.000  S  -0.308482
  C145     1.0000 0.36050  0.16260  0.94710  Biso   1.000  C  0.115630
  C146     1.0000 0.31720  0.14070  0.97270  Biso   1.000  C  -0.131705
  H110     1.0000 0.31740  0.10900  0.00400  Biso   1.000  H  0.098670
  C147     1.0000 0.27240  0.16490  0.95300  Biso   1.000  C  -0.095694
  H111     1.0000 0.24360  0.14920  0.97420  Biso   1.000  H  0.098674
  C148     1.0000 0.26880  0.21040  0.90420  Biso   1.000  C  -0.100733
  H112     1.0000 0.23870  0.22510  0.88680  Biso   1.000  H  0.098795
  C149     1.0000 0.31290  0.23300  0.88280  Biso   1.000  C  -0.096113
  H113     1.0000 0.31290  0.26570  0.85590  Biso   1.000  H  0.098936
  C150     1.0000 0.35770  0.20900  0.89950  Biso   1.000  C  -0.133193
  H114     1.0000 0.38650  0.22460  0.87810  Biso   1.000  H  0.098557
  Cd13     1.0000 0.06174  0.57966  0.17877  Biso   1.000  Cd  0.522361
  Cd14     1.0000 0.08705  0.57986  0.87441  Biso   1.000  Cd  0.521949
  N13      1.0000 0.11380  0.62520  0.28870  Biso   1.000  N  -0.272154
  N14      1.0000 0.14010  0.63140  0.77720  Biso   1.000  N  -0.260247
  C151     1.0000 0.18050  0.68110  0.40510  Biso   1.000  C  0.072039
  C152     1.0000 0.19020  0.68890  0.63310  Biso   1.000  C  0.066860
  C153     1.0000 0.14240  0.68170  0.78310  Biso   1.000  C  0.056947
  H115     1.0000 0.12720  0.69750  0.83710  Biso   1.000  H  0.079041
  C154     1.0000 0.16170  0.61800  0.28360  Biso   1.000  C  0.061201
  H116     1.0000 0.17240  0.59290  0.23970  Biso   1.000  H  0.078181
  C155     1.0000 0.13210  0.68820  0.41380  Biso   1.000  C  -0.197705
  H117     1.0000 0.12030  0.71210  0.45930  Biso   1.000  H  0.098862
  C156     1.0000 0.16630  0.71220  0.71360  Biso   1.000  C  -0.202848
  H118     1.0000 0.16630  0.74750  0.72040  Biso   1.000  H  0.098857
  C157     1.0000 0.24810  0.74440  0.39620  Biso   1.000  C  -0.169906
  H119     1.0000 0.24590  0.74150  0.32660  Biso   1.000  H  0.098574
  C158     1.0000 0.21850  0.72090  0.56010  Biso   1.000  C  0.028151
  C159     1.0000 0.19740  0.64400  0.33720  Biso   1.000  C  -0.202511
  H120     1.0000 0.23070  0.63740  0.32900  Biso   1.000  H  0.099152
  C160     1.0000 0.18650  0.63680  0.62560  Biso   1.000  C  -0.196302
  H121     1.0000 0.20050  0.61990  0.57140  Biso   1.000  H  0.098862
  C161     1.0000 0.16210  0.60970  0.69790  Biso   1.000  C  0.056522
  H122     1.0000 0.16070  0.57440  0.69170  Biso   1.000  H  0.077190
  C162     1.0000 0.21720  0.71330  0.45950  Biso   1.000  C  0.030018
  C163     1.0000 0.09880  0.65970  0.35430  Biso   1.000  C  0.054714
  H123     1.0000 0.06520  0.66530  0.36140  Biso   1.000  H  0.078758
  S13      1.0000 0.97948  0.59224  0.25960  Biso   1.000  S  -0.308360
  C164     1.0000 0.97520  0.65920  0.27810  Biso   1.000  C  0.125285
  C165     1.0000 0.96250  0.67810  0.37290  Biso   1.000  C  -0.132729
  H124     1.0000 0.95570  0.65530  0.42440  Biso   1.000  H  0.099051
  C166     1.0000 0.96000  0.72960  0.39190  Biso   1.000  C  -0.099193
  H125     1.0000 0.95180  0.74130  0.45560  Biso   1.000  H  0.098667
  C167     1.0000 0.96970  0.76380  0.31490  Biso   1.000  C  -0.102198
  H126     1.0000 0.96730  0.79860  0.32680  Biso   1.000  H  0.099051
  C168     1.0000 0.98310  0.74630  0.22000  Biso   1.000  C  -0.102194
  H127     1.0000 0.99050  0.76900  0.16870  Biso   1.000  H  0.099012
  C169     1.0000 0.98510  0.69410  0.20430  Biso   1.000  C  -0.132349
  H128     1.0000 0.99350  0.68220  0.14080  Biso   1.000  H  0.098859
  S14      1.0000 0.08078  0.63498  0.02665  Biso   1.000  S  -0.308482
  C170     1.0000 0.13950  0.66260  0.05290  Biso   1.000  C  0.115630
  C171     1.0000 0.18280  0.64070  0.02730  Biso   1.000  C  -0.131705
  H129     1.0000 0.18260  0.60900  0.99600  Biso   1.000  H  0.098670
  C172     1.0000 0.22760  0.66490  0.04700  Biso   1.000  C  -0.095694
  H130     1.0000 0.25640  0.64920  0.02580  Biso   1.000  H  0.098674
  C173     1.0000 0.23120  0.71040  0.09580  Biso   1.000  C  -0.100733
  H131     1.0000 0.26130  0.72510  0.11320  Biso   1.000  H  0.098795
  C174     1.0000 0.18710  0.73300  0.11720  Biso   1.000  C  -0.096113
  H132     1.0000 0.18710  0.76570  0.14410  Biso   1.000  H  0.098936
  C175     1.0000 0.14230  0.70900  0.10050  Biso   1.000  C  -0.133193
  H133     1.0000 0.11350  0.72460  0.12190  Biso   1.000  H  0.098557
  Cd15     1.0000 0.56174  0.07966  0.17877  Biso   1.000  Cd  0.522361
  Cd16     1.0000 0.58705  0.07986  0.87441  Biso   1.000  Cd  0.521949
  N15      1.0000 0.61380  0.12520  0.28870  Biso   1.000  N  -0.272154
  N16      1.0000 0.64010  0.13140  0.77720  Biso   1.000  N  -0.260247
  C176     1.0000 0.68050  0.18110  0.40510  Biso   1.000  C  0.072039
  C177     1.0000 0.69020  0.18890  0.63310  Biso   1.000  C  0.066860
  C178     1.0000 0.64240  0.18170  0.78310  Biso   1.000  C  0.056947
  H134     1.0000 0.62720  0.19750  0.83710  Biso   1.000  H  0.079041
  C179     1.0000 0.66170  0.11800  0.28360  Biso   1.000  C  0.061201
  H135     1.0000 0.67240  0.09290  0.23970  Biso   1.000  H  0.078181
  C180     1.0000 0.63210  0.18820  0.41380  Biso   1.000  C  -0.197705
  H136     1.0000 0.62030  0.21210  0.45930  Biso   1.000  H  0.098862
  C181     1.0000 0.66630  0.21220  0.71360  Biso   1.000  C  -0.202848
  H137     1.0000 0.66630  0.24750  0.72040  Biso   1.000  H  0.098857
  C182     1.0000 0.74810  0.24440  0.39620  Biso   1.000  C  -0.169906
  H138     1.0000 0.74590  0.24150  0.32660  Biso   1.000  H  0.098574
  C183     1.0000 0.71850  0.22090  0.56010  Biso   1.000  C  0.028151
  C184     1.0000 0.69740  0.14400  0.33720  Biso   1.000  C  -0.202511
  H139     1.0000 0.73070  0.13740  0.32900  Biso   1.000  H  0.099152
  C185     1.0000 0.68650  0.13680  0.62560  Biso   1.000  C  -0.196302
  H140     1.0000 0.70050  0.11990  0.57140  Biso   1.000  H  0.098862
  C186     1.0000 0.66210  0.10970  0.69790  Biso   1.000  C  0.056522
  H141     1.0000 0.66070  0.07440  0.69170  Biso   1.000  H  0.077190
  C187     1.0000 0.71720  0.21330  0.45950  Biso   1.000  C  0.030018
  C188     1.0000 0.59880  0.15970  0.35430  Biso   1.000  C  0.054714
  H142     1.0000 0.56520  0.16530  0.36140  Biso   1.000  H  0.078758
  S15      1.0000 0.47948  0.09224  0.25960  Biso   1.000  S  -0.308360
  C189     1.0000 0.47520  0.15920  0.27810  Biso   1.000  C  0.125285
  C190     1.0000 0.46250  0.17810  0.37290  Biso   1.000  C  -0.132729
  H143     1.0000 0.45570  0.15530  0.42440  Biso   1.000  H  0.099051
  C191     1.0000 0.46000  0.22960  0.39190  Biso   1.000  C  -0.099193
  H144     1.0000 0.45180  0.24130  0.45560  Biso   1.000  H  0.098667
  C192     1.0000 0.46970  0.26380  0.31490  Biso   1.000  C  -0.102198
  H145     1.0000 0.46730  0.29860  0.32680  Biso   1.000  H  0.099051
  C193     1.0000 0.48310  0.24630  0.22000  Biso   1.000  C  -0.102194
  H146     1.0000 0.49050  0.26900  0.16870  Biso   1.000  H  0.099012
  C194     1.0000 0.48510  0.19410  0.20430  Biso   1.000  C  -0.132349
  H147     1.0000 0.49350  0.18220  0.14080  Biso   1.000  H  0.098859
  S16      1.0000 0.58078  0.13498  0.02665  Biso   1.000  S  -0.308482
  C195     1.0000 0.63950  0.16260  0.05290  Biso   1.000  C  0.115630
  C196     1.0000 0.68280  0.14070  0.02730  Biso   1.000  C  -0.131705
  H148     1.0000 0.68260  0.10900  0.99600  Biso   1.000  H  0.098670
  C197     1.0000 0.72760  0.16490  0.04700  Biso   1.000  C  -0.095694
  H149     1.0000 0.75640  0.14920  0.02580  Biso   1.000  H  0.098674
  C198     1.0000 0.73120  0.21040  0.09580  Biso   1.000  C  -0.100733
  H150     1.0000 0.76130  0.22510  0.11320  Biso   1.000  H  0.098795
  C199     1.0000 0.68710  0.23300  0.11720  Biso   1.000  C  -0.096113
  H151     1.0000 0.68710  0.26570  0.14410  Biso   1.000  H  0.098936
  C200     1.0000 0.64230  0.20900  0.10050  Biso   1.000  C  -0.133193
  H152     1.0000 0.61350  0.22460  0.12190  Biso   1.000  H  0.098557
  S17      1.0000 0.13490  0.50000  0.83670  Biso   1.000  S  -0.307911
  C201     1.0000 0.18910  0.50000  0.90600  Biso   1.000  C  0.115832
  C202     1.0000 0.19130  0.50000  0.01050  Biso   1.000  C  -0.135230
  H153     1.0000 0.16220  0.50000  0.04700  Biso   1.000  H  0.099868
  C203     1.0000 0.23640  0.50000  0.06100  Biso   1.000  C  -0.102171
  H154     1.0000 0.23920  0.50000  0.13100  Biso   1.000  H  0.098048
  C204     1.0000 0.23120  0.50000  0.84800  Biso   1.000  C  -0.133516
  H155     1.0000 0.22840  0.50000  0.77840  Biso   1.000  H  0.099283
  C205     1.0000 0.27750  0.50000  0.89300  Biso   1.000  C  -0.102194
  H156     1.0000 0.30650  0.50000  0.85680  Biso   1.000  H  0.099359
  C206     1.0000 0.27700  0.50000  0.99800  Biso   1.000  C  -0.102174
  H157     1.0000 0.30770  0.50000  0.02960  Biso   1.000  H  0.098574
  S18      1.0000 0.11032  0.50000  0.21520  Biso   1.000  S  -0.308360
  C207     1.0000 0.10960  0.50000  0.35060  Biso   1.000  C  0.118071
  C208     1.0000 0.06830  0.50000  0.40490  Biso   1.000  C  -0.129571
  H158     1.0000 0.03850  0.50000  0.36980  Biso   1.000  H  0.098670
  C209     1.0000 0.06620  0.50000  0.50650  Biso   1.000  C  -0.099376
  H159     1.0000 0.03660  0.50000  0.54110  Biso   1.000  H  0.098670
  C210     1.0000 0.11070  0.50000  0.55400  Biso   1.000  C  -0.099769
  H160     1.0000 0.11070  0.50000  0.62390  Biso   1.000  H  0.099020
  C211     1.0000 0.15450  0.50000  0.50850  Biso   1.000  C  -0.099376
  H161     1.0000 0.18430  0.50000  0.54350  Biso   1.000  H  0.099000
  C212     1.0000 0.15130  0.50000  0.40530  Biso   1.000  C  -0.129508
  H162     1.0000 0.18070  0.50000  0.37030  Biso   1.000  H  0.099152
  S19      1.0000 0.63490  0.00000  0.83670  Biso   1.000  S  -0.307911
  C213     1.0000 0.68910  0.00000  0.90600  Biso   1.000  C  0.115832
  C214     1.0000 0.69130  0.00000  0.01050  Biso   1.000  C  -0.135230
  H163     1.0000 0.66220  0.00000  0.04700  Biso   1.000  H  0.099868
  C215     1.0000 0.73640  0.00000  0.06100  Biso   1.000  C  -0.102171
  H164     1.0000 0.73920  0.00000  0.13100  Biso   1.000  H  0.098048
  C216     1.0000 0.73120  0.00000  0.84800  Biso   1.000  C  -0.133516
  H165     1.0000 0.72840  0.00000  0.77840  Biso   1.000  H  0.099283
  C217     1.0000 0.77750  0.00000  0.89300  Biso   1.000  C  -0.102194
  H166     1.0000 0.80650  0.00000  0.85680  Biso   1.000  H  0.099359
  C218     1.0000 0.77700  0.00000  0.99800  Biso   1.000  C  -0.102174
  H167     1.0000 0.80770  0.00000  0.02960  Biso   1.000  H  0.098574
  S20      1.0000 0.61032  0.00000  0.21520  Biso   1.000  S  -0.308360
  C219     1.0000 0.60960  0.00000  0.35060  Biso   1.000  C  0.118071
  C220     1.0000 0.56830  0.00000  0.40490  Biso   1.000  C  -0.129571
  H168     1.0000 0.53850  0.00000  0.36980  Biso   1.000  H  0.098670
  C221     1.0000 0.56620  0.00000  0.50650  Biso   1.000  C  -0.099376
  H169     1.0000 0.53660  0.00000  0.54110  Biso   1.000  H  0.098670
  C222     1.0000 0.61070  0.00000  0.55400  Biso   1.000  C  -0.099769
  H170     1.0000 0.61070  0.00000  0.62390  Biso   1.000  H  0.099020
  C223     1.0000 0.65450  0.00000  0.50850  Biso   1.000  C  -0.099376
  H171     1.0000 0.68430  0.00000  0.54350  Biso   1.000  H  0.099000
  C224     1.0000 0.65130  0.00000  0.40530  Biso   1.000  C  -0.129508
  H172     1.0000 0.68070  0.00000  0.37030  Biso   1.000  H  0.099152
  S21      1.0000 0.86510  0.50000  0.16330  Biso   1.000  S  -0.307911
  C225     1.0000 0.81090  0.50000  0.09400  Biso   1.000  C  0.115832
  C226     1.0000 0.80870  0.50000  0.98950  Biso   1.000  C  -0.135230
  H173     1.0000 0.83780  0.50000  0.95300  Biso   1.000  H  0.099868
  C227     1.0000 0.76360  0.50000  0.93900  Biso   1.000  C  -0.102171
  H174     1.0000 0.76080  0.50000  0.86900  Biso   1.000  H  0.098048
  C228     1.0000 0.76880  0.50000  0.15200  Biso   1.000  C  -0.133516
  H175     1.0000 0.77160  0.50000  0.22160  Biso   1.000  H  0.099283
  C229     1.0000 0.72250  0.50000  0.10700  Biso   1.000  C  -0.102194
  H176     1.0000 0.69350  0.50000  0.14320  Biso   1.000  H  0.099359
  C230     1.0000 0.72300  0.50000  0.00200  Biso   1.000  C  -0.102174
  H177     1.0000 0.69230  0.50000  0.97040  Biso   1.000  H  0.098574
  S22      1.0000 0.88968  0.50000  0.78480  Biso   1.000  S  -0.308360
  C231     1.0000 0.89040  0.50000  0.64940  Biso   1.000  C  0.118071
  C232     1.0000 0.93170  0.50000  0.59510  Biso   1.000  C  -0.129571
  H178     1.0000 0.96150  0.50000  0.63020  Biso   1.000  H  0.098670
  C233     1.0000 0.93380  0.50000  0.49350  Biso   1.000  C  -0.099376
  H179     1.0000 0.96340  0.50000  0.45890  Biso   1.000  H  0.098670
  C234     1.0000 0.88930  0.50000  0.44600  Biso   1.000  C  -0.099769
  H180     1.0000 0.88930  0.50000  0.37610  Biso   1.000  H  0.099020
  C235     1.0000 0.84550  0.50000  0.49150  Biso   1.000  C  -0.099376
  H181     1.0000 0.81570  0.50000  0.45650  Biso   1.000  H  0.099000
  C236     1.0000 0.84870  0.50000  0.59470  Biso   1.000  C  -0.129508
  H182     1.0000 0.81930  0.50000  0.62970  Biso   1.000  H  0.099152
  S23      1.0000 0.36510  0.00000  0.16330  Biso   1.000  S  -0.307911
  C237     1.0000 0.31090  0.00000  0.09400  Biso   1.000  C  0.115832
  C238     1.0000 0.30870  0.00000  0.98950  Biso   1.000  C  -0.135230
  H183     1.0000 0.33780  0.00000  0.95300  Biso   1.000  H  0.099868
  C239     1.0000 0.26360  0.00000  0.93900  Biso   1.000  C  -0.102171
  H184     1.0000 0.26080  0.00000  0.86900  Biso   1.000  H  0.098048
  C240     1.0000 0.26880  0.00000  0.15200  Biso   1.000  C  -0.133516
  H185     1.0000 0.27160  0.00000  0.22160  Biso   1.000  H  0.099283
  C241     1.0000 0.22250  0.00000  0.10700  Biso   1.000  C  -0.102194
  H186     1.0000 0.19350  0.00000  0.14320  Biso   1.000  H  0.099359
  C242     1.0000 0.22300  0.00000  0.00200  Biso   1.000  C  -0.102174
  H187     1.0000 0.19230  0.00000  0.97040  Biso   1.000  H  0.098574
  S24      1.0000 0.38968  0.00000  0.78480  Biso   1.000  S  -0.308360
  C243     1.0000 0.39040  0.00000  0.64940  Biso   1.000  C  0.118071
  C244     1.0000 0.43170  0.00000  0.59510  Biso   1.000  C  -0.129571
  H188     1.0000 0.46150  0.00000  0.63020  Biso   1.000  H  0.098670
  C245     1.0000 0.43380  0.00000  0.49350  Biso   1.000  C  -0.099376
  H189     1.0000 0.46340  0.00000  0.45890  Biso   1.000  H  0.098670
  C246     1.0000 0.38930  0.00000  0.44600  Biso   1.000  C  -0.099769
  H190     1.0000 0.38930  0.00000  0.37610  Biso   1.000  H  0.099020
  C247     1.0000 0.34550  0.00000  0.49150  Biso   1.000  C  -0.099376
  H191     1.0000 0.31570  0.00000  0.45650  Biso   1.000  H  0.099000
  C248     1.0000 0.34870  0.00000  0.59470  Biso   1.000  C  -0.129508
  H192     1.0000 0.31930  0.00000  0.62970  Biso   1.000  H  0.099152
