data_image0
_cell_length_a       20.9335
_cell_length_b       20.9335
_cell_length_c       20.9335
_cell_angle_alpha    115.808
_cell_angle_beta     115.808
_cell_angle_gamma    115.808

_symmetry_space_group_name_H-M    "P 1"
_symmetry_int_tables_number       1

loop_
  _symmetry_equiv_pos_as_xyz
  'x, y, z'

loop_
  _atom_site_label
  _atom_site_occupancy
  _atom_site_fract_x
  _atom_site_fract_y
  _atom_site_fract_z
  _atom_site_thermal_displace_type
  _atom_site_B_iso_or_equiv
  _atom_site_type_symbol
  _atom_site_charge
  Cu1      1.0000 0.59538  0.92375  0.75224  Biso   1.000  Cu  0.758947
  Cu2      1.0000 0.54775  0.01271  0.65121  Biso   1.000  Cu  0.802509
  O1       1.0000 0.49360  0.88140  0.53730  Biso   1.000  O  -0.534481
  O2       1.0000 0.52720  0.82790  0.60610  Biso   1.000  O  -0.534659
  O3       1.0000 0.72440  0.05850  0.82020  Biso   1.000  O  -0.533710
  O4       1.0000 0.70170  0.10470  0.74040  Biso   1.000  O  -0.530976
  O5       1.0000 0.51070  0.96590  0.74030  Biso   1.000  O  -0.546205
  O6       1.0000 0.40330  0.91380  0.58910  Biso   1.000  O  -0.531604
  N1       1.0000 0.47570  0.78100  0.68810  Biso   1.000  N  -0.253340
  N2       1.0000 0.68170  0.00730  0.90620  Biso   1.000  N  -0.265786
  N3       1.0000 0.14480  0.73710  0.58590  Biso   1.000  N  -0.254567
  C1       1.0000 0.41760  0.77350  0.70180  Biso   1.000  C  0.075639
  H1       1.0000 0.44280  0.83850  0.75220  Biso   1.000  H  0.096735
  C2       1.0000 0.32090  0.67310  0.64460  Biso   1.000  C  -0.181648
  H2       1.0000 0.27970  0.66970  0.65360  Biso   1.000  H  0.118755
  C3       1.0000 0.28670  0.57790  0.57350  Biso   1.000  C  -0.020717
  C4       1.0000 0.35020  0.58710  0.56400  Biso   1.000  C  -0.177734
  H3       1.0000 0.33060  0.52480  0.51930  Biso   1.000  H  0.118929
  C5       1.0000 0.44330  0.68900  0.62070  Biso   1.000  C  0.082790
  H4       1.0000 0.48520  0.69420  0.61210  Biso   1.000  H  0.094947
  C6       1.0000 0.48790  0.81660  0.53160  Biso   1.000  C  0.606350
  C7       1.0000 0.70460  0.08930  0.97380  Biso   1.000  C  0.075675
  H5       1.0000 0.67550  0.10630  0.94680  Biso   1.000  H  0.099648
  C8       1.0000 0.91700  0.23010  0.84880  Biso   1.000  C  -0.178571
  H6       1.0000 0.87180  0.21710  0.79250  Biso   1.000  H  0.118977
  C9       1.0000 0.87610  0.18470  0.87140  Biso   1.000  C  -0.017601
  C10      1.0000 0.94570  0.20830  0.95660  Biso   1.000  C  -0.176516
  H7       1.0000 0.92010  0.17870  0.97400  Biso   1.000  H  0.118884
  C11      1.0000 0.72360  0.98400  0.94600  Biso   1.000  C  0.077298
  H8       1.0000 0.70570  0.92440  0.89800  Biso   1.000  H  0.098655
  C12      1.0000 0.75700  0.10920  0.80470  Biso   1.000  C  0.592856
  C13      1.0000 0.25050  0.83230  0.69240  Biso   1.000  C  0.081411
  H9       1.0000 0.26280  0.85890  0.75090  Biso   1.000  H  0.096441
  C14      1.0000 0.34140  0.89170  0.71780  Biso   1.000  C  -0.182061
  H10      1.0000 0.41420  0.95680  0.79230  Biso   1.000  H  0.118989
  C15      1.0000 0.32330  0.85380  0.63200  Biso   1.000  C  -0.018435
  C16      1.0000 0.21600  0.75780  0.52390  Biso   1.000  C  -0.180768
  H11      1.0000 0.20160  0.73070  0.46410  Biso   1.000  H  0.118977
  C17      1.0000 0.12980  0.70180  0.50450  Biso   1.000  C  0.075549
  H12      1.0000 0.05680  0.63560  0.43030  Biso   1.000  H  0.096791
  C18      1.0000 0.41980  0.91570  0.65610  Biso   1.000  C  0.593626
  Cu3      1.0000 0.75224  0.59538  0.92375  Biso   1.000  Cu  0.758947
  Cu4      1.0000 0.65121  0.54775  0.01271  Biso   1.000  Cu  0.802509
  O7       1.0000 0.53730  0.49360  0.88140  Biso   1.000  O  -0.534481
  O8       1.0000 0.60610  0.52720  0.82790  Biso   1.000  O  -0.534659
  O9       1.0000 0.82020  0.72440  0.05850  Biso   1.000  O  -0.533710
  O10      1.0000 0.74040  0.70170  0.10470  Biso   1.000  O  -0.530976
  O11      1.0000 0.74030  0.51070  0.96590  Biso   1.000  O  -0.546205
  O12      1.0000 0.58910  0.40330  0.91380  Biso   1.000  O  -0.531604
  N4       1.0000 0.68810  0.47570  0.78100  Biso   1.000  N  -0.253340
  N5       1.0000 0.90620  0.68170  0.00730  Biso   1.000  N  -0.265786
  N6       1.0000 0.58590  0.14480  0.73710  Biso   1.000  N  -0.254567
  C19      1.0000 0.70180  0.41760  0.77350  Biso   1.000  C  0.075639
  H13      1.0000 0.75220  0.44280  0.83850  Biso   1.000  H  0.096735
  C20      1.0000 0.64460  0.32090  0.67310  Biso   1.000  C  -0.181648
  H14      1.0000 0.65360  0.27970  0.66970  Biso   1.000  H  0.118755
  C21      1.0000 0.57350  0.28670  0.57790  Biso   1.000  C  -0.020717
  C22      1.0000 0.56400  0.35020  0.58710  Biso   1.000  C  -0.177734
  H15      1.0000 0.51930  0.33060  0.52480  Biso   1.000  H  0.118929
  C23      1.0000 0.62070  0.44330  0.68900  Biso   1.000  C  0.082790
  H16      1.0000 0.61210  0.48520  0.69420  Biso   1.000  H  0.094947
  C24      1.0000 0.53160  0.48790  0.81660  Biso   1.000  C  0.606350
  C25      1.0000 0.97380  0.70460  0.08930  Biso   1.000  C  0.075675
  H17      1.0000 0.94680  0.67550  0.10630  Biso   1.000  H  0.099648
  C26      1.0000 0.84880  0.91700  0.23010  Biso   1.000  C  -0.178571
  H18      1.0000 0.79250  0.87180  0.21710  Biso   1.000  H  0.118977
  C27      1.0000 0.87140  0.87610  0.18470  Biso   1.000  C  -0.017601
  C28      1.0000 0.95660  0.94570  0.20830  Biso   1.000  C  -0.176516
  H19      1.0000 0.97400  0.92010  0.17870  Biso   1.000  H  0.118884
  C29      1.0000 0.94600  0.72360  0.98400  Biso   1.000  C  0.077298
  H20      1.0000 0.89800  0.70570  0.92440  Biso   1.000  H  0.098655
  C30      1.0000 0.80470  0.75700  0.10920  Biso   1.000  C  0.592856
  C31      1.0000 0.69240  0.25050  0.83230  Biso   1.000  C  0.081411
  H21      1.0000 0.75090  0.26280  0.85890  Biso   1.000  H  0.096441
  C32      1.0000 0.71780  0.34140  0.89170  Biso   1.000  C  -0.182061
  H22      1.0000 0.79230  0.41420  0.95680  Biso   1.000  H  0.118989
  C33      1.0000 0.63200  0.32330  0.85380  Biso   1.000  C  -0.018435
  C34      1.0000 0.52390  0.21600  0.75780  Biso   1.000  C  -0.180768
  H23      1.0000 0.46410  0.20160  0.73070  Biso   1.000  H  0.118977
  C35      1.0000 0.50450  0.12980  0.70180  Biso   1.000  C  0.075549
  H24      1.0000 0.43030  0.05680  0.63560  Biso   1.000  H  0.096791
  C36      1.0000 0.65610  0.41980  0.91570  Biso   1.000  C  0.593626
  Cu5      1.0000 0.92375  0.75224  0.59538  Biso   1.000  Cu  0.758947
  Cu6      1.0000 0.01271  0.65121  0.54775  Biso   1.000  Cu  0.802509
  O13      1.0000 0.88140  0.53730  0.49360  Biso   1.000  O  -0.534481
  O14      1.0000 0.82790  0.60610  0.52720  Biso   1.000  O  -0.534659
  O15      1.0000 0.05850  0.82020  0.72440  Biso   1.000  O  -0.533710
  O16      1.0000 0.10470  0.74040  0.70170  Biso   1.000  O  -0.530976
  O17      1.0000 0.96590  0.74030  0.51070  Biso   1.000  O  -0.546205
  O18      1.0000 0.91380  0.58910  0.40330  Biso   1.000  O  -0.531604
  N7       1.0000 0.78100  0.68810  0.47570  Biso   1.000  N  -0.253340
  N8       1.0000 0.00730  0.90620  0.68170  Biso   1.000  N  -0.265786
  N9       1.0000 0.73710  0.58590  0.14480  Biso   1.000  N  -0.254567
  C37      1.0000 0.77350  0.70180  0.41760  Biso   1.000  C  0.075639
  H25      1.0000 0.83850  0.75220  0.44280  Biso   1.000  H  0.096735
  C38      1.0000 0.67310  0.64460  0.32090  Biso   1.000  C  -0.181648
  H26      1.0000 0.66970  0.65360  0.27970  Biso   1.000  H  0.118755
  C39      1.0000 0.57790  0.57350  0.28670  Biso   1.000  C  -0.020717
  C40      1.0000 0.58710  0.56400  0.35020  Biso   1.000  C  -0.177734
  H27      1.0000 0.52480  0.51930  0.33060  Biso   1.000  H  0.118929
  C41      1.0000 0.68900  0.62070  0.44330  Biso   1.000  C  0.082790
  H28      1.0000 0.69420  0.61210  0.48520  Biso   1.000  H  0.094947
  C42      1.0000 0.81660  0.53160  0.48790  Biso   1.000  C  0.606350
  C43      1.0000 0.08930  0.97380  0.70460  Biso   1.000  C  0.075675
  H29      1.0000 0.10630  0.94680  0.67550  Biso   1.000  H  0.099648
  C44      1.0000 0.23010  0.84880  0.91700  Biso   1.000  C  -0.178571
  H30      1.0000 0.21710  0.79250  0.87180  Biso   1.000  H  0.118977
  C45      1.0000 0.18470  0.87140  0.87610  Biso   1.000  C  -0.017601
  C46      1.0000 0.20830  0.95660  0.94570  Biso   1.000  C  -0.176516
  H31      1.0000 0.17870  0.97400  0.92010  Biso   1.000  H  0.118884
  C47      1.0000 0.98400  0.94600  0.72360  Biso   1.000  C  0.077298
  H32      1.0000 0.92440  0.89800  0.70570  Biso   1.000  H  0.098655
  C48      1.0000 0.10920  0.80470  0.75700  Biso   1.000  C  0.592856
  C49      1.0000 0.83230  0.69240  0.25050  Biso   1.000  C  0.081411
  H33      1.0000 0.85890  0.75090  0.26280  Biso   1.000  H  0.096441
  C50      1.0000 0.89170  0.71780  0.34140  Biso   1.000  C  -0.182061
  H34      1.0000 0.95680  0.79230  0.41420  Biso   1.000  H  0.118989
  C51      1.0000 0.85380  0.63200  0.32330  Biso   1.000  C  -0.018435
  C52      1.0000 0.75780  0.52390  0.21600  Biso   1.000  C  -0.180768
  H35      1.0000 0.73070  0.46410  0.20160  Biso   1.000  H  0.118977
  C53      1.0000 0.70180  0.50450  0.12980  Biso   1.000  C  0.075549
  H36      1.0000 0.63560  0.43030  0.05680  Biso   1.000  H  0.096791
  C54      1.0000 0.91570  0.65610  0.41980  Biso   1.000  C  0.593626
  Cu7      1.0000 0.40462  0.07625  0.24776  Biso   1.000  Cu  0.758947
  Cu8      1.0000 0.45225  0.98729  0.34879  Biso   1.000  Cu  0.802509
  O19      1.0000 0.50640  0.11860  0.46270  Biso   1.000  O  -0.534481
  O20      1.0000 0.47280  0.17210  0.39390  Biso   1.000  O  -0.534659
  O21      1.0000 0.27560  0.94150  0.17980  Biso   1.000  O  -0.533710
  O22      1.0000 0.29830  0.89530  0.25960  Biso   1.000  O  -0.530976
  O23      1.0000 0.48930  0.03410  0.25970  Biso   1.000  O  -0.546205
  O24      1.0000 0.59670  0.08620  0.41090  Biso   1.000  O  -0.531604
  N10      1.0000 0.52430  0.21900  0.31190  Biso   1.000  N  -0.253340
  N11      1.0000 0.31830  0.99270  0.09380  Biso   1.000  N  -0.265786
  N12      1.0000 0.85520  0.26290  0.41410  Biso   1.000  N  -0.254567
  C55      1.0000 0.58240  0.22650  0.29820  Biso   1.000  C  0.075639
  H37      1.0000 0.55720  0.16150  0.24780  Biso   1.000  H  0.096735
  C56      1.0000 0.67910  0.32690  0.35540  Biso   1.000  C  -0.181648
  H38      1.0000 0.72030  0.33030  0.34640  Biso   1.000  H  0.118755
  C57      1.0000 0.71330  0.42210  0.42650  Biso   1.000  C  -0.020717
  C58      1.0000 0.64980  0.41290  0.43600  Biso   1.000  C  -0.177734
  H39      1.0000 0.66940  0.47520  0.48070  Biso   1.000  H  0.118929
  C59      1.0000 0.55670  0.31100  0.37930  Biso   1.000  C  0.082790
  H40      1.0000 0.51480  0.30580  0.38790  Biso   1.000  H  0.094947
  C60      1.0000 0.51210  0.18340  0.46840  Biso   1.000  C  0.606350
  C61      1.0000 0.29540  0.91070  0.02620  Biso   1.000  C  0.075675
  H41      1.0000 0.32450  0.89370  0.05320  Biso   1.000  H  0.099648
  C62      1.0000 0.08300  0.76990  0.15120  Biso   1.000  C  -0.178571
  H42      1.0000 0.12820  0.78290  0.20750  Biso   1.000  H  0.118977
  C63      1.0000 0.12390  0.81530  0.12860  Biso   1.000  C  -0.017601
  C64      1.0000 0.05430  0.79170  0.04340  Biso   1.000  C  -0.176516
  H43      1.0000 0.07990  0.82130  0.02600  Biso   1.000  H  0.118884
  C65      1.0000 0.27640  0.01600  0.05400  Biso   1.000  C  0.077298
  H44      1.0000 0.29430  0.07560  0.10200  Biso   1.000  H  0.098655
  C66      1.0000 0.24300  0.89080  0.19530  Biso   1.000  C  0.592856
  C67      1.0000 0.74950  0.16770  0.30760  Biso   1.000  C  0.081411
  H45      1.0000 0.73720  0.14110  0.24910  Biso   1.000  H  0.096441
  C68      1.0000 0.65860  0.10830  0.28220  Biso   1.000  C  -0.182061
  H46      1.0000 0.58580  0.04320  0.20770  Biso   1.000  H  0.118989
  C69      1.0000 0.67670  0.14620  0.36800  Biso   1.000  C  -0.018435
  C70      1.0000 0.78400  0.24220  0.47610  Biso   1.000  C  -0.180768
  H47      1.0000 0.79840  0.26930  0.53590  Biso   1.000  H  0.118977
  C71      1.0000 0.87020  0.29820  0.49550  Biso   1.000  C  0.075549
  H48      1.0000 0.94320  0.36440  0.56970  Biso   1.000  H  0.096791
  C72      1.0000 0.58020  0.08430  0.34390  Biso   1.000  C  0.593626
  Cu9      1.0000 0.24776  0.40462  0.07625  Biso   1.000  Cu  0.758947
  Cu10     1.0000 0.34879  0.45225  0.98729  Biso   1.000  Cu  0.802509
  O25      1.0000 0.46270  0.50640  0.11860  Biso   1.000  O  -0.534481
  O26      1.0000 0.39390  0.47280  0.17210  Biso   1.000  O  -0.534659
  O27      1.0000 0.17980  0.27560  0.94150  Biso   1.000  O  -0.533710
  O28      1.0000 0.25960  0.29830  0.89530  Biso   1.000  O  -0.530976
  O29      1.0000 0.25970  0.48930  0.03410  Biso   1.000  O  -0.546205
  O30      1.0000 0.41090  0.59670  0.08620  Biso   1.000  O  -0.531604
  N13      1.0000 0.31190  0.52430  0.21900  Biso   1.000  N  -0.253340
  N14      1.0000 0.09380  0.31830  0.99270  Biso   1.000  N  -0.265786
  N15      1.0000 0.41410  0.85520  0.26290  Biso   1.000  N  -0.254567
  C73      1.0000 0.29820  0.58240  0.22650  Biso   1.000  C  0.075639
  H49      1.0000 0.24780  0.55720  0.16150  Biso   1.000  H  0.096735
  C74      1.0000 0.35540  0.67910  0.32690  Biso   1.000  C  -0.181648
  H50      1.0000 0.34640  0.72030  0.33030  Biso   1.000  H  0.118755
  C75      1.0000 0.42650  0.71330  0.42210  Biso   1.000  C  -0.020717
  C76      1.0000 0.43600  0.64980  0.41290  Biso   1.000  C  -0.177734
  H51      1.0000 0.48070  0.66940  0.47520  Biso   1.000  H  0.118929
  C77      1.0000 0.37930  0.55670  0.31100  Biso   1.000  C  0.082790
  H52      1.0000 0.38790  0.51480  0.30580  Biso   1.000  H  0.094947
  C78      1.0000 0.46840  0.51210  0.18340  Biso   1.000  C  0.606350
  C79      1.0000 0.02620  0.29540  0.91070  Biso   1.000  C  0.075675
  H53      1.0000 0.05320  0.32450  0.89370  Biso   1.000  H  0.099648
  C80      1.0000 0.15120  0.08300  0.76990  Biso   1.000  C  -0.178571
  H54      1.0000 0.20750  0.12820  0.78290  Biso   1.000  H  0.118977
  C81      1.0000 0.12860  0.12390  0.81530  Biso   1.000  C  -0.017601
  C82      1.0000 0.04340  0.05430  0.79170  Biso   1.000  C  -0.176516
  H55      1.0000 0.02600  0.07990  0.82130  Biso   1.000  H  0.118884
  C83      1.0000 0.05400  0.27640  0.01600  Biso   1.000  C  0.077298
  H56      1.0000 0.10200  0.29430  0.07560  Biso   1.000  H  0.098655
  C84      1.0000 0.19530  0.24300  0.89080  Biso   1.000  C  0.592856
  C85      1.0000 0.30760  0.74950  0.16770  Biso   1.000  C  0.081411
  H57      1.0000 0.24910  0.73720  0.14110  Biso   1.000  H  0.096441
  C86      1.0000 0.28220  0.65860  0.10830  Biso   1.000  C  -0.182061
  H58      1.0000 0.20770  0.58580  0.04320  Biso   1.000  H  0.118989
  C87      1.0000 0.36800  0.67670  0.14620  Biso   1.000  C  -0.018435
  C88      1.0000 0.47610  0.78400  0.24220  Biso   1.000  C  -0.180768
  H59      1.0000 0.53590  0.79840  0.26930  Biso   1.000  H  0.118977
  C89      1.0000 0.49550  0.87020  0.29820  Biso   1.000  C  0.075549
  H60      1.0000 0.56970  0.94320  0.36440  Biso   1.000  H  0.096791
  C90      1.0000 0.34390  0.58020  0.08430  Biso   1.000  C  0.593626
  Cu11     1.0000 0.07625  0.24776  0.40462  Biso   1.000  Cu  0.758947
  Cu12     1.0000 0.98729  0.34879  0.45225  Biso   1.000  Cu  0.802509
  O31      1.0000 0.11860  0.46270  0.50640  Biso   1.000  O  -0.534481
  O32      1.0000 0.17210  0.39390  0.47280  Biso   1.000  O  -0.534659
  O33      1.0000 0.94150  0.17980  0.27560  Biso   1.000  O  -0.533710
  O34      1.0000 0.89530  0.25960  0.29830  Biso   1.000  O  -0.530976
  O35      1.0000 0.03410  0.25970  0.48930  Biso   1.000  O  -0.546205
  O36      1.0000 0.08620  0.41090  0.59670  Biso   1.000  O  -0.531604
  N16      1.0000 0.21900  0.31190  0.52430  Biso   1.000  N  -0.253340
  N17      1.0000 0.99270  0.09380  0.31830  Biso   1.000  N  -0.265786
  N18      1.0000 0.26290  0.41410  0.85520  Biso   1.000  N  -0.254567
  C91      1.0000 0.22650  0.29820  0.58240  Biso   1.000  C  0.075639
  H61      1.0000 0.16150  0.24780  0.55720  Biso   1.000  H  0.096735
  C92      1.0000 0.32690  0.35540  0.67910  Biso   1.000  C  -0.181648
  H62      1.0000 0.33030  0.34640  0.72030  Biso   1.000  H  0.118755
  C93      1.0000 0.42210  0.42650  0.71330  Biso   1.000  C  -0.020717
  C94      1.0000 0.41290  0.43600  0.64980  Biso   1.000  C  -0.177734
  H63      1.0000 0.47520  0.48070  0.66940  Biso   1.000  H  0.118929
  C95      1.0000 0.31100  0.37930  0.55670  Biso   1.000  C  0.082790
  H64      1.0000 0.30580  0.38790  0.51480  Biso   1.000  H  0.094947
  C96      1.0000 0.18340  0.46840  0.51210  Biso   1.000  C  0.606350
  C97      1.0000 0.91070  0.02620  0.29540  Biso   1.000  C  0.075675
  H65      1.0000 0.89370  0.05320  0.32450  Biso   1.000  H  0.099648
  C98      1.0000 0.76990  0.15120  0.08300  Biso   1.000  C  -0.178571
  H66      1.0000 0.78290  0.20750  0.12820  Biso   1.000  H  0.118977
  C99      1.0000 0.81530  0.12860  0.12390  Biso   1.000  C  -0.017601
  C100     1.0000 0.79170  0.04340  0.05430  Biso   1.000  C  -0.176516
  H67      1.0000 0.82130  0.02600  0.07990  Biso   1.000  H  0.118884
  C101     1.0000 0.01600  0.05400  0.27640  Biso   1.000  C  0.077298
  H68      1.0000 0.07560  0.10200  0.29430  Biso   1.000  H  0.098655
  C102     1.0000 0.89080  0.19530  0.24300  Biso   1.000  C  0.592856
  C103     1.0000 0.16770  0.30760  0.74950  Biso   1.000  C  0.081411
  H69      1.0000 0.14110  0.24910  0.73720  Biso   1.000  H  0.096441
  C104     1.0000 0.10830  0.28220  0.65860  Biso   1.000  C  -0.182061
  H70      1.0000 0.04320  0.20770  0.58580  Biso   1.000  H  0.118989
  C105     1.0000 0.14620  0.36800  0.67670  Biso   1.000  C  -0.018435
  C106     1.0000 0.24220  0.47610  0.78400  Biso   1.000  C  -0.180768
  H71      1.0000 0.26930  0.53590  0.79840  Biso   1.000  H  0.118977
  C107     1.0000 0.29820  0.49550  0.87020  Biso   1.000  C  0.075549
  H72      1.0000 0.36440  0.56970  0.94320  Biso   1.000  H  0.096791
  C108     1.0000 0.08430  0.34390  0.58020  Biso   1.000  C  0.593626
