data_image0
_cell_length_a       10.886
_cell_length_b       11.4737
_cell_length_c       13.4734
_cell_angle_alpha    69.544
_cell_angle_beta     80.149
_cell_angle_gamma    62.652

_symmetry_space_group_name_H-M    "P 1"
_symmetry_int_tables_number       1

loop_
  _symmetry_equiv_pos_as_xyz
  'x, y, z'

loop_
  _atom_site_label
  _atom_site_occupancy
  _atom_site_fract_x
  _atom_site_fract_y
  _atom_site_fract_z
  _atom_site_thermal_displace_type
  _atom_site_B_iso_or_equiv
  _atom_site_type_symbol
  _atom_site_charge
  U1       1.0000 0.63171  0.70253  0.83336  Biso   1.000  U  1.686825
  Pr1      1.0000 0.61975  0.21572  0.77469  Biso   1.000  Pr  1.824447
  O1       1.0000 0.85810  0.52950  0.90560  Biso   1.000  O  -0.598577
  O2       1.0000 0.77430  0.48420  0.79480  Biso   1.000  O  -0.600430
  O3       1.0000 0.85280  0.20750  0.76110  Biso   1.000  O  -0.646518
  O4       1.0000 0.89990  0.35570  0.62260  Biso   1.000  O  -0.598912
  O5       1.0000 0.42700  0.90890  0.82740  Biso   1.000  O  -0.630835
  O6       1.0000 0.51510  0.06060  0.77480  Biso   1.000  O  -0.643012
  O7       1.0000 0.47560  0.17500  0.93150  Biso   1.000  O  -0.650702
  O8       1.0000 0.31240  0.21330  0.05450  Biso   1.000  O  -0.633269
  O9       1.0000 0.50800  0.69100  0.71280  Biso   1.000  O  -0.635285
  O10      1.0000 0.42840  0.69620  0.56970  Biso   1.000  O  -0.564019
  O11      1.0000 0.73910  0.63170  0.53500  Biso   1.000  O  -0.600989
  O12      1.0000 0.85830  0.75120  0.47720  Biso   1.000  O  -0.601563
  C1       1.0000 0.00930  0.33700  0.84490  Biso   1.000  C  -0.061983
  C2       1.0000 0.11660  0.31160  0.90410  Biso   1.000  C  -0.157086
  H1       1.0000 0.09790  0.36160  0.95070  Biso   1.000  H  0.100742
  C3       1.0000 0.25110  0.21390  0.89610  Biso   1.000  C  -0.063755
  C4       1.0000 0.27740  0.13550  0.82710  Biso   1.000  C  -0.064811
  C5       1.0000 0.16740  0.15550  0.77440  Biso   1.000  C  -0.156794
  H2       1.0000 0.18340  0.09910  0.73360  Biso   1.000  H  0.101086
  C6       1.0000 0.03230  0.25780  0.78000  Biso   1.000  C  -0.066073
  C7       1.0000 0.62050  0.00200  0.45150  Biso   1.000  C  -0.158171
  H3       1.0000 0.70250  0.00320  0.41870  Biso   1.000  H  0.101002
  C8       1.0000 0.61690  0.87550  0.50410  Biso   1.000  C  -0.065412
  C9       1.0000 0.49360  0.87390  0.55380  Biso   1.000  C  -0.063605
  C10      1.0000 0.87180  0.45460  0.84960  Biso   1.000  C  0.551070
  C11      1.0000 0.35610  0.19830  0.96320  Biso   1.000  C  0.602602
  C12      1.0000 0.41840  0.02920  0.80820  Biso   1.000  C  0.602166
  C13      1.0000 0.91860  0.27650  0.71720  Biso   1.000  C  0.601122
  C14      1.0000 0.47770  0.74430  0.61440  Biso   1.000  C  0.550337
  C15      1.0000 0.74410  0.74510  0.50630  Biso   1.000  C  0.552384
  U2       1.0000 0.36829  0.29747  0.16664  Biso   1.000  U  1.686825
  Pr2      1.0000 0.38025  0.78428  0.22531  Biso   1.000  Pr  1.824447
  O13      1.0000 0.14190  0.47050  0.09440  Biso   1.000  O  -0.598577
  O14      1.0000 0.22570  0.51580  0.20520  Biso   1.000  O  -0.600430
  O15      1.0000 0.14720  0.79250  0.23890  Biso   1.000  O  -0.646518
  O16      1.0000 0.10010  0.64430  0.37740  Biso   1.000  O  -0.598912
  O17      1.0000 0.57300  0.09110  0.17260  Biso   1.000  O  -0.630835
  O18      1.0000 0.48490  0.93940  0.22520  Biso   1.000  O  -0.643012
  O19      1.0000 0.52440  0.82500  0.06850  Biso   1.000  O  -0.650702
  O20      1.0000 0.68760  0.78670  0.94550  Biso   1.000  O  -0.633269
  O21      1.0000 0.49200  0.30900  0.28720  Biso   1.000  O  -0.635285
  O22      1.0000 0.57160  0.30380  0.43030  Biso   1.000  O  -0.564019
  O23      1.0000 0.26090  0.36830  0.46500  Biso   1.000  O  -0.600989
  O24      1.0000 0.14170  0.24880  0.52280  Biso   1.000  O  -0.601563
  C16      1.0000 0.99070  0.66300  0.15510  Biso   1.000  C  -0.061983
  C17      1.0000 0.88340  0.68840  0.09590  Biso   1.000  C  -0.157086
  H4       1.0000 0.90210  0.63840  0.04930  Biso   1.000  H  0.100742
  C18      1.0000 0.74890  0.78610  0.10390  Biso   1.000  C  -0.063755
  C19      1.0000 0.72260  0.86450  0.17290  Biso   1.000  C  -0.064811
  C20      1.0000 0.83260  0.84450  0.22560  Biso   1.000  C  -0.156794
  H5       1.0000 0.81660  0.90090  0.26640  Biso   1.000  H  0.101086
  C21      1.0000 0.96770  0.74220  0.22000  Biso   1.000  C  -0.066073
  C22      1.0000 0.37950  0.99800  0.54850  Biso   1.000  C  -0.158171
  H6       1.0000 0.29750  0.99680  0.58130  Biso   1.000  H  0.101002
  C23      1.0000 0.38310  0.12450  0.49590  Biso   1.000  C  -0.065412
  C24      1.0000 0.50640  0.12610  0.44620  Biso   1.000  C  -0.063605
  C25      1.0000 0.12820  0.54540  0.15040  Biso   1.000  C  0.551070
  C26      1.0000 0.64390  0.80170  0.03680  Biso   1.000  C  0.602602
  C27      1.0000 0.58160  0.97080  0.19180  Biso   1.000  C  0.602166
  C28      1.0000 0.08140  0.72350  0.28280  Biso   1.000  C  0.601122
  C29      1.0000 0.52230  0.25570  0.38560  Biso   1.000  C  0.550337
  C30      1.0000 0.25590  0.25490  0.49370  Biso   1.000  C  0.552384
  U3       1.0000 0.00000  0.50000  0.50000  Biso   1.000  U  1.976037
